72
 SCF done       -124.061465206891          0.000275592164
C          -3.39672744699874   -1.53575644166646    2.01545703018140
N          -4.39623017916033   -0.74970219253881    2.49896010069401
C          -5.49810116102447   -1.18876722352531    3.31693520377081
C          -5.06584930816561   -1.43766912978174    4.75957835162456
C          -4.20789026337592    0.60283752613002    2.13933601956992
O          -4.97780312369107    1.49119247605727    2.46281506014982
C          -2.99229669449474    0.59437546647349    1.37029934854827
C          -2.51801925446779   -0.75542447908272    1.31810978836110
C          -1.30285928722255   -0.77198166747043    0.52869203345293
O          -0.54306523017975   -1.66128544665469    0.21614846076466
N          -1.12468777652979    0.57235554153703    0.14933037000077
C          -0.02485577279627    0.96515417896611   -0.69690877184262
C          -0.45065283301271    1.11308263026727   -2.15597893646280
C          -2.12254709488219    1.39205319924420    0.63478202587472
C          -2.18443267055050    2.78054775029505    0.37726271998577
C          -3.14275152914328    3.59302475113522    0.90571866756810
C          -3.26532340104734    4.96156806171333    0.59010142640528
S          -2.43586911004123    5.61154770502280   -0.79374148267095
C          -3.22679804814140    7.13634020963921   -0.66430965109684
C          -4.09052265524513    7.16895820968718    0.44434351786059
C          -4.08631745762804    5.94348554788357    1.17844420690300
C          -4.85786451413969    5.84213314927351    2.36668208972916
C          -4.75958204012133    4.69445093898676    3.26627714597753
C          -5.79031077759185    4.14806189871122    3.89464120344771
C          -5.66143770022838    6.91200920486227    2.70198513161756
C          -5.70299351887594    8.08810947008039    1.94048332083838
C          -4.91101187570936    8.24095170138639    0.83541434527032
C          -3.00090343662972    8.15130940279901   -1.61679589271578
S          -1.89621331273870    7.95117220108665   -2.98037258187940
C          -2.38218288993719    9.58539398664845   -3.43716916805972
N          -3.24265503520127   10.09631387115707   -2.60773562849255
N          -3.58100460142632    9.32274104866942   -1.61752923223223
C          -1.87425612709832   10.22556295986891   -4.60474218873081
C          -2.27484762502930   11.45686783324661   -4.97493544923073
C          -1.83780263725698   12.16875016619990   -6.14642365141103
C          -0.88171735980861   11.70972659177740   -7.06581648473764
N          -0.53256719835371   12.39403204303650   -8.13156532636531
C          -1.11840892481824   13.57473381580435   -8.33182780641797
N          -2.02749582546732   14.11582366157058   -7.52045238031728
C          -2.37556357642634   13.42853426612447   -6.45706344418075
C          -0.73880141427772   14.32671549429075   -9.52204590861126
C           0.20068374465915   13.84553681573576  -10.43810434078092
N           0.53883781707328   14.52685693259311  -11.51722907404918
C          -0.05444662969723   15.69473641823702  -11.69618976855243
N          -0.95304793992446   16.25120678461024  -10.90180072002035
C          -1.29473381109523   15.57375737231081   -9.82153788857772
H          -3.38939548359888   -2.59494952230597    2.19386919643448
H          -5.92621031271750   -2.09855519582337    2.88545774827056
H          -6.24395344386354   -0.38971756525788    3.28311960970298
H          -4.30968246767074   -2.21829230331925    4.80483363597385
H          -5.92161398690351   -1.74521846073378    5.35402199063105
H          -4.65196428145258   -0.52788126279790    5.18753534397946
H           0.71861867052448    0.16713742347321   -0.61380532672495
H           0.41275927523701    1.89490710061386   -0.32215084544229
H          -0.83595145206701    0.16602094110699   -2.52538260046973
H           0.40424549688547    1.40090557284311   -2.76170229177723
H          -1.22664135311832    1.86789704531625   -2.26319385434679
H          -1.43009456942129    3.21065221818138   -0.26797511927378
H          -3.88422491794624    3.17295383230799    1.57193692150946
H          -3.76034327145361    4.31326481197038    3.43148587956487
H          -6.80081192858308    4.47972150603232    3.72343620903777
H          -5.66370428341957    3.31746352023581    4.56501103640226
H          -6.24988079588335    6.85294764610712    3.60527500717361
H          -6.34942101835434    8.89321120704579    2.25574123694908
H          -4.89368297392017    9.15005522948246    0.25796505734522
H          -1.15853309078805    9.65871550904995   -5.18151419517679
H          -2.99931920572192   11.96287170940570   -4.35061520130841
H          -0.37762273387194   10.76026965659210   -6.94028385243358
H          -3.11746754920607   13.88891980657164   -5.81544366233415
H           0.68311272770951   12.88940781350620  -10.28709965288586
H           0.22362940923854   16.25156376060390  -12.58184935287297
H          -2.02939895147957   16.02419329714875   -9.16813470906391
