115
 SCF done       -200.925468862718          0.000508835939
C         -10.56147559167785    2.45412898449523   -1.85350553850625
N         -10.34444113302559    3.64681488043844   -2.46940174876568
C         -11.22788699958641    4.28281564038986   -3.41388241580924
C         -11.15546332607000    3.61961106925277   -4.78684750166689
C          -9.08737035931129    4.18958543929560   -2.11682822946555
O          -8.67924641870046    5.25107762052152   -2.54564671406250
C          -8.53317454307734    3.21947605029343   -1.20338360881050
C          -9.48527907576209    2.15517214054740   -1.06836592603296
C          -8.93474889988647    1.17838353885048   -0.15113331614787
O          -9.35299728083667    0.12229509215902    0.26767166016425
N          -7.68179641906071    1.71692030294817    0.20611792082318
C          -6.82807886643070    1.04815609947415    1.15728594423001
C          -6.91113402352142    1.68354746953554    2.54319245625173
C          -7.43873223801154    2.92558879023583   -0.40761266663949
C          -6.23790926055272    3.67034068145233   -0.21207244543320
C          -5.99422071287219    4.85255484210895   -0.80973463167582
C          -4.76036626695963    5.57902060140217   -0.59253542386334
N          -3.87666176577956    5.09540386247876    0.28956204149450
C          -2.76497709195978    5.78439713654312    0.46098477710604
C          -2.48734402222455    6.95200345865621   -0.23337610479214
C          -3.46270129321656    7.38163834314433   -1.14366741200165
N          -4.59172659717543    6.68894690076275   -1.29991818105104
C          -3.36095053486318    8.55538582989884   -1.98685611282520
C          -2.27118379375787    9.34354936153141   -2.07517474278954
C          -2.03162693934637   10.47473944679171   -2.90700487455682
N          -2.87629488142267   11.16544417796733   -3.74399786486289
C          -4.28131465080337   10.94883040408534   -3.99611787658811
C          -4.50903031573283    9.89593196478794   -5.07852885897169
C          -2.20023327678551   12.19731038741587   -4.42484215244421
O          -2.74558631362950   12.94161376369811   -5.21895889281276
C          -0.83943333813364   12.12660183930667   -3.94657396752290
C          -0.77824428858501   11.07270426159200   -3.00883541224121
C           0.58042661289397   10.98018526458082   -2.51467245492857
O           1.09624228973691   10.24647687411473   -1.69863469107597
N           1.26235789561112   12.00020667201718   -3.20243148381169
C           2.67783222351299   12.21696905227268   -3.01405535630398
C           3.50794526150423   11.54883956451580   -4.10639745777633
C           0.43878698497647   12.68190246341605   -4.06738857032732
C           0.87808758320412   13.71530159798492   -4.92198730935480
C           0.02568050175760   14.37546529102103   -5.75955028837984
C           0.48100811193313   15.35116417785046   -6.66988532941357
N          -0.34062402390303   16.04158979525791   -7.52943224510957
C          -1.77447893764989   15.90767952371655   -7.64258723552442
C          -2.17342809072664   14.67728601237664   -8.45226347270184
C           0.38046139351011   16.91899881305002   -8.35777047493182
O          -0.12164001662256   17.64604666424789   -9.18940430663440
C           1.75769146550408   16.73099336514876   -7.95089883159632
C           1.79274305778461   15.78314124649408   -6.91177733481647
C           3.17369677951711   15.64568689896451   -6.50174359133860
O           3.70119563679662   14.95642255054611   -5.64879725493979
N           3.88486991126033   16.53508930856015   -7.32708621821951
C           5.31213545881304   16.67986344580164   -7.17741786835675
C           6.07837251345079   15.85252979674377   -8.20719039387042
C           3.05270100954136   17.18434035678074   -8.20821720000487
C           3.30996139578858   18.16654967174899   -9.18847719750004
C           4.46890578920797   18.74552491415922   -9.60787629875322
C           4.49782864409276   19.74692292612024  -10.60943731932226
C           3.51224626152285   20.59883544631320  -11.01864057970577
C           3.65808445022606   21.24099589897616  -12.36404398263064
O           4.65406800104883   21.25139406046161  -13.04783850414424
C           2.32810401845540   21.78549290447341  -12.65768947183989
C           1.69808792683507   22.39080032718886  -13.70311295936266
S           0.03501938729339   22.74379349177342  -13.29465632747357
C           0.21614025238793   22.07994129139255  -11.71087140672342
C           1.47652516655590   21.61097076866817  -11.51761414621456
C           2.23804275303711   20.99278787945284  -10.44658008102335
C           1.85807251645810   21.02119119413082   -9.12921842603181
C           0.60918404994805   21.54128858080927   -8.73143856515580
N          -0.39840431519469   21.96602707353394   -8.38451117582025
C           2.66365931170630   20.61819192096241   -8.04971613406605
N           3.29517163517897   20.32950799508435   -7.13498199943081
Cl          2.33582172967406   22.78884866049935  -15.22141151325309
H         -11.47264341443298    1.90735308561115   -2.01262899111778
H         -10.90464558094505    5.32480536069159   -3.48606729192281
H         -12.25097030986650    4.24920064770827   -3.02760318103545
H         -10.14056698569418    3.67208761009405   -5.17316626310127
H         -11.81901289907115    4.13008173608076   -5.47919446816652
H         -11.45103926238818    2.57454724388223   -4.72517653020747
H          -5.79783384517524    1.04901048722334    0.79050843327992
H          -7.18530338448077    0.01535704022132    1.20580941969840
H          -6.59119911345723    2.72269911322086    2.51615184752338
H          -6.27500556615065    1.13902218032484    3.23553812761703
H          -7.93477088665823    1.64480565507704    2.90770360624723
H          -5.48213197261785    3.26454145418976    0.44495586522876
H          -6.70136648498392    5.31150513728258   -1.48534022287423
H          -2.06740371578178    5.38000268084766    1.18428437213730
H          -1.56901826470287    7.49042580870876   -0.07348737914730
H          -4.24692712162464    8.71454695134815   -2.57999778920460
H          -1.39865149066472    9.10511713914845   -1.47943709952669
H          -4.67712381995204   11.90850218282400   -4.34296157757918
H          -4.77966271337167   10.68139407946684   -3.06253335569049
H          -4.09165890725970   10.24229032315350   -6.02093537124362
H          -5.57425852127368    9.72851744413345   -5.21007046485022
H          -4.03539067329862    8.95243026142468   -4.81743248669485
H           2.92379324080541   11.77628321094713   -2.04383847188564
H           2.88271840948638   13.28943949210904   -2.98362108519606
H           3.29744733434402   10.48234143890802   -4.13822909979596
H           4.56377520549777   11.69135391894097   -3.89614227256916
H           3.28972910735609   11.98285453170870   -5.07871418180935
H           1.92786639361317   13.97206620043895   -4.92065976273735
H          -1.02784490780815   14.13582364797669   -5.74548224422395
H          -2.12068889315603   16.81214055046726   -8.15061413690803
H          -2.21745002917088   15.86568237928800   -6.64488842387753
H          -1.70702731973176   14.70639103295879   -9.43430176592258
H          -3.25203320656611   14.66228059714960   -8.57774959441050
H          -1.87475391967467   13.76419183822670   -7.94420147030041
H           5.54888623157394   16.31376020003455   -6.17392065202611
H           5.57104135802888   17.73940767358828   -7.23279455165952
H           5.86175601843400   14.79644884026450   -8.06523904599503
H           7.14681222992316   16.00628106708974   -8.08330896143167
H           5.79749058854598   16.12627639897271   -9.22190172166369
H           2.39601096549104   18.46896313537743   -9.68686720382182
H           5.42843573106273   18.40484202881364   -9.25169972961722
H           5.41353874114140   19.82091597853974  -11.18940154084710
H          -0.62287042119091   22.06996809488664  -11.04407000098718
