98
 SCF done       -152.485466428944          0.000948946147
C          -1.73728702291009   -0.84286300426578    3.07939676246922
N          -2.02851781352273   -0.60634255867935    1.77145180156062
C          -2.04810382274461   -1.59226993563316    0.72106594734567
C          -3.28841980901521   -2.47832066061619    0.80531435847967
C          -2.39153854417293    0.74214774559418    1.55927216917016
O          -2.68964712015994    1.18530533249911    0.46387535515735
C          -2.29529966171483    1.34004778101166    2.86515664133579
C          -1.88116035953338    0.31818418774957    3.78267721705200
C          -1.77565888971920    0.91446790119905    5.09696668290480
O          -1.46010324079978    0.46726397354736    6.17754751653087
N          -2.13275224306400    2.26226569196893    4.88903926730199
C          -2.18825786923164    3.19040574273328    5.99109245610822
C          -3.61650064620725    3.40008389730281    6.48992171586240
C          -2.44773637475464    2.52353601802771    3.57242367862466
C          -2.84456673721085    3.80738355922196    3.10484133002736
C          -3.12662889053146    4.04808138827114    1.80372601252449
C          -3.53535867064615    5.31047790263725    1.26115975443694
C          -3.93191745011278    6.43077712696808    2.01269194804195
N          -4.31093198675972    7.55618012946378    1.46234293269065
C          -4.32815178910613    7.62653601924065    0.12207944826020
N          -3.93838500413938    6.63648571077881   -0.69057409943479
C          -3.55885990146259    5.51520678773523   -0.13099328923500
C          -4.72636772391466    8.88451661515351   -0.42502877903232
S          -4.64203261403507   10.22784250992501    0.64332758005965
C          -4.89425872747488   11.36695232508198   -0.63516124188237
C          -5.07238364067813   10.71243312608165   -1.87203733793891
C          -5.04228326994733    9.28210113850479   -1.72994991405492
C          -5.33330394329968    8.43692739586488   -2.83144880549445
C          -5.66001214981964    7.01674764774637   -2.70028948804270
C          -6.54382701912467    6.54528859736965   -1.83310778121597
C          -5.43359567630087    9.02661890735942   -4.06944016163215
C          -5.37738680762619   10.41556249625108   -4.22600435242490
C          -5.25624575600748   11.27760392205087   -3.16296188018568
C          -5.32343355203830   12.75087437900233   -3.41977743431681
C          -4.88107594469365   12.75176759558119   -0.31991512169625
C          -4.90889972475637   13.25388395110228    0.93289241013776
C          -4.89355789875549   14.67428267679060    1.18966411768739
N          -4.78747423054383   15.50800195324038    0.14654224748660
C          -4.76915241458215   16.80001302918214    0.41395099230697
C          -4.86308935020931   17.29835293296539    1.70242810883226
C          -4.98571594738952   16.35503282541333    2.73187634693113
N          -4.99253528169293   15.05184259262452    2.46151265415103
C          -5.10856474342422   16.77951548967687    4.11425619220836
C          -5.27268653028820   15.92421067285772    5.12855972160157
C          -5.45422736926167   16.31102533504816    6.52359688424807
C          -6.50383814747487   15.70827888954821    7.21812061182349
C          -6.81504737614509   16.05993692119122    8.51965805507428
C          -7.96247655544686   15.39625925576359    9.23503131801033
N          -9.00471603137422   15.00272292977481    8.29945009763927
C          -6.03645967541070   17.01909741863549    9.15559582311509
C          -4.95983065245756   17.58197634265563    8.49843117180695
C          -4.64838418904598   17.24524587892735    7.18588725838145
C          -3.42560926021654   17.87878157274504    6.56528557452824
N          -3.67996505542614   19.22436057023168    6.09433941878794
C          -3.51501851902829   19.60808450865647    4.79157840388221
C          -4.05554567160312   20.68874730425043    4.23398751450090
H          -1.44076736618353   -1.82033499937028    3.41215110002083
H          -1.14041082815523   -2.20043078873373    0.78147174532130
H          -2.04827316219400   -1.03917258679131   -0.22213449996086
H          -3.31182315735073   -3.01763135569124    1.74985101342560
H          -3.28529401173810   -3.19826377570291   -0.00834264288847
H          -4.18657172916199   -1.87016684445453    0.72984727882597
H          -1.73382528280932    4.14066833164770    5.69589178754237
H          -1.58560428459712    2.74576320674566    6.78847482615981
H          -4.25286745095978    3.79531700474070    5.70096347098450
H          -3.61764099162784    4.09649586828733    7.32403796741562
H          -4.03206949649887    2.45342407953766    6.82617012140426
H          -2.90309697965400    4.60374960227963    3.83213111250722
H          -3.03141051392276    3.24023539035184    1.08950439537506
H          -3.95894521176093    6.41238787797816    3.09509334900063
H          -3.23773250385801    4.73062306864432   -0.80534744500196
H          -5.22174598164645    6.36158566929668   -3.44083234817756
H          -7.02327087468905    7.18246404087755   -1.10781641925800
H          -6.81451930768366    5.50389896275552   -1.80892366870428
H          -5.62134021692321    8.40976312580552   -4.93617178151224
H          -5.48613825187988   10.82268202518570   -5.22108319498952
H          -5.52470095987553   12.93161972151064   -4.47346933502729
H          -4.38032032871966   13.23489902583774   -3.16961580006507
H          -6.11895586273374   13.21166450696269   -2.83686248187359
H          -4.84983701570033   13.46842748016961   -1.12254093428245
H          -4.96218678620963   12.61868038823143    1.80481579171432
H          -4.67733640364195   17.45693153665053   -0.44320962211993
H          -4.84687962248596   18.35586054220774    1.91070184493333
H          -5.08998574685953   17.84763653661814    4.27620267509857
H          -5.35368707077980   14.86951397831836    4.89972824543147
H          -7.11224423541719   14.96670477474591    6.72347852775460
H          -8.32019533405012   16.06590974451500   10.03686882549280
H          -7.59382765675917   14.48095844090330    9.71415407131972
H          -9.39305486802352   15.82212057776358    7.84373598399591
H          -9.75660262332239   14.52909995310973    8.78713477903831
H          -6.26062037305418   17.31098219206642   10.17173362119712
H          -4.33833301575498   18.30037927258372    9.01517680760673
H          -3.06164451960395   17.27532702823246    5.73123233008912
H          -2.63536396263669   17.91787335526171    7.33070549241763
H          -4.35549043643209   19.74944734455781    6.62941617225321
H          -2.83830860561307   18.97482967194788    4.23118305769077
H          -4.72062333351901   21.33604296266379    4.77964390415704
H          -3.81811833843554   20.97285261791693    3.22653406320440
