112
 SCF done       -187.651013007760          0.000632833320
C          -9.69868676297000    2.40770332930682    4.04683077159591
N          -9.67564178289381    3.76392154685802    4.13866200578796
C         -10.59654997115969    4.57380413235090    4.89480187578556
C         -11.94265041934394    4.70299710820271    4.18613310661278
C          -8.65818333866963    4.32171597537792    3.32414322140716
O          -8.44529746023988    5.51514461773740    3.24433380803857
C          -8.03745584198700    3.17062680122613    2.72066676688995
C          -8.71063333294375    2.00149866954959    3.19399635425026
C          -8.07670324602110    0.85703450539575    2.57786027658187
O          -8.27876718888932   -0.33395299351435    2.66421457098126
N          -7.06831614773170    1.41211011813165    1.75520739237528
C          -6.16718970881856    0.52868055146959    1.05705174356991
C          -4.79067929310429    0.47606513034546    1.71593364714685
C          -7.03681535668518    2.78978248300804    1.83909239188332
C          -6.20147516962380    3.72931528891877    1.17721933316011
C          -5.28546150889199    3.54788007503531    0.19606486329656
C          -4.53139787289502    4.60526605564909   -0.37688070045847
S          -4.65616352013538    6.26069308317896    0.16497103340074
C          -3.47263569026579    6.79634404453396   -0.98748980358969
C          -3.01449874783025    5.71791178171647   -1.75278210693232
C          -3.61414640408812    4.49733049713490   -1.39887303545367
C          -2.04409322192206    5.78820739935106   -2.76328889819434
N          -1.24962314167489    5.79097559028434   -3.59335540868769
C          -3.10982263632723    8.16390741876603   -1.01648512650287
C          -2.24650566335511    8.72371267062498   -1.90212829820432
C          -1.85627503786468   10.08250221189938   -1.89668462277656
S          -2.47379239397230   11.20812731874461   -0.72319075473762
C          -0.95293867605732   10.70309065301363   -2.75391330501706
C          -0.25590626834577    9.96419742587031   -3.85302389775309
C           0.97356119950119    9.19842759341633   -3.33784274517949
N           1.96146825855029   10.12799076093953   -2.81429932832333
C          -0.74383342025210   12.06476350499179   -2.45604050679978
C           0.22562233886085   12.91224266666246   -3.21890209377232
C          -0.45295106334409   13.69547963243025   -4.35432444010030
N          -0.95156652542912   12.77734053626404   -5.36538968605484
C          -1.51005258394928   12.50800365449031   -1.38202383495197
C          -1.63445519925229   13.75332208434337   -0.70710865061393
C          -1.12349270916355   14.96073990456634   -1.04994136303498
C          -1.28269373776299   16.14767913349243   -0.28497154795582
S          -0.52835778934078   17.61264924177661   -0.90774580132505
C          -1.09837463111098   18.50408001046002    0.45095868002209
C          -1.84373628476388   17.68275202116651    1.33235667589119
C          -1.94252954521675   16.35588124319639    0.91239537584798
N          -2.28295263202723   18.42291000500391    2.39489111657108
C          -3.04461090246473   17.93848461338469    3.51235279587114
C          -1.81885398821179   19.70175315517552    2.21953118113937
C          -1.07854907232448   19.77807793034907    1.00644455638364
S          -0.47406307841821   21.35919951066586    0.73364060821144
C          -1.21519978065126   21.91901814445709    2.24880129732676
C          -1.89088883270393   20.90052090217463    2.91017487095267
C          -0.99376064537105   23.26749370291898    2.56560257656382
C          -1.43196817822790   24.05187059385413    3.60500769429584
C          -1.04000704343339   25.44187908734267    3.76767565097672
C          -0.07697360139610   26.12642567446941    3.06859229708508
C           0.25263941201348   27.47836997381927    3.29954750646940
N           0.57512210270527   28.57333823104311    3.42826811387441
C           0.75235881058996   25.61382568303475    2.04930806235204
N           1.48314928677964   25.29415539361990    1.22193436128347
C          -1.81732041553950   26.00315511473190    4.86805625273193
C          -2.62386974783599   24.96945797724865    5.41814193311802
C          -2.39637876181058   23.71824307639165    4.67429529584578
O          -2.92828777195108   22.65125055643988    4.92237162148205
C          -3.46034062256442   25.18685458648482    6.47419064593551
C          -3.53283345663910   26.47946696757965    7.04006436019144
C          -2.73254832516411   27.52251509970591    6.49271376910652
C          -1.87443230421264   27.26442334292284    5.39851080691457
C          -2.81247968043882   28.80930116521088    7.06251195388225
C          -3.64215711212879   29.05575581650356    8.12239609377638
C          -4.43027977757954   28.02769123406184    8.66033787455974
C          -4.37655795658030   26.76691077650160    8.13066975780162
H         -10.41339618549817    1.82799987998646    4.60144060272029
H         -10.13250077689843    5.55879582055683    4.99475255356321
H         -10.72904090289740    4.13520668436290    5.88838363239095
H         -11.80653584468532    5.15970423316257    3.20891510585473
H         -12.61148450533489    5.32665404247062    4.77258837489058
H         -12.40183166072434    3.72578577720980    4.05284539456572
H          -6.09819824890262    0.81785035343120    0.00490645981388
H          -6.63226510896815   -0.46097573232599    1.11006612952228
H          -4.33025660759863    1.46102763967653    1.74769039825391
H          -4.14211099696014   -0.19788114684580    1.16263440047113
H          -4.88531126484763    0.10769958372657    2.73448759153805
H          -6.37589140879800    4.74227133844689    1.52338120922739
H          -5.07905910291948    2.57508708788490   -0.22308919148615
H          -3.37508020448039    3.56626247124304   -1.88292606790060
H          -3.56774511595135    8.78929945477054   -0.26027664371609
H          -1.80239776824743    8.10563356856724   -2.66744548710171
H           0.06116002893257   10.66738495655141   -4.62125013113735
H          -0.93777734636800    9.24541872451623   -4.30910859407576
H           1.42574930429575    8.66741435523163   -4.17838798955573
H           0.64895214867729    8.44770665674982   -2.59794191137115
H           1.63213642604817   10.53698425833149   -1.94540250015669
H           2.83205402688284    9.64721951458194   -2.61930634813978
H           0.99189552998664   12.27006788069418   -3.65151286085393
H           0.71734111159838   13.60990359798171   -2.54083076459673
H           0.29483688634024   14.33678625194770   -4.82829920635564
H          -1.24467042160194   14.34130699975667   -3.93833197255721
H          -1.74599993029505   12.25832797725031   -5.00507987112997
H          -1.26169071829068   13.28628932609816   -6.18519369623566
H          -2.23344786093653   13.69791532416394    0.19318272027166
H          -0.55446302608890   15.08528015944695   -1.95640254154639
H          -2.46056840245157   15.58161222549083    1.44655025182894
H          -3.85267254436192   17.29578078129162    3.16016856058230
H          -3.46944242635671   18.78567419604762    4.04664119264295
H          -2.41305737920821   17.36672269147200    4.19843147343785
H          -2.39663251141448   21.06728619152345    3.84295358728813
H          -0.36362276015113   23.76596748483564    1.83838779887213
H          -4.06043977124541   24.38217914197833    6.87288409245388
H          -1.28592969421731   28.07851993699971    5.00732790710858
H          -2.20291787162220   29.59735986537619    6.64503730603260
H          -3.69560698870910   30.04485366520497    8.55229381639818
H          -5.08003736405768   28.23956392335113    9.49647683155530
H          -4.98113116964224   25.97097906366859    8.54089739227506
