124
 SCF done       -200.157974865589          0.000755372035
C          -8.46202371654520    3.05158871421264   -8.39935547482499
N          -7.17946324872017    3.24557664998167   -8.81401863249922
C          -6.56424162922407    2.63455540121311   -9.96412583965455
C          -6.25167580259091    1.16040734096337   -9.71965680494457
C          -6.47522071441502    4.08836203859860   -7.93035735540961
O          -5.30514623529179    4.40350324155815   -8.10278426998184
C          -7.43707745972305    4.41832196382757   -6.91677750340697
C          -8.66069963964661    3.75446069176712   -7.24402287075591
C          -9.64095388538581    4.09591966494346   -6.23172665027276
O         -10.80213850360713    3.78323621798283   -6.08236592807148
N          -8.94836511241390    4.95343574177402   -5.36020198238591
C          -9.57789879592468    5.48373511603539   -4.17652325425847
C          -9.16301782515975    4.72241859233290   -2.91937564056438
C          -7.63800289774299    5.15491797498887   -5.74744976251930
C          -6.73087923137317    5.97971362391451   -5.05987563479792
C          -5.43665654566788    6.12535982298046   -5.48631406984967
C          -4.46866659279107    6.92992960793164   -4.88929303863185
S          -4.77219409609601    7.91093032375311   -3.48289508895142
C          -3.15238436616693    8.54863045483040   -3.46173079738377
C          -2.39467961319832    8.00434484913879   -4.52588261767042
C          -3.13176393775079    7.09354315748192   -5.32567294148871
C          -2.51652446492702    6.46791422638186   -6.41382000777399
C          -1.19996711649902    6.74348355880573   -6.72732154106029
C          -0.56519296424513    6.07713683016488   -7.86160738354311
C          -1.20776464736312    5.59734723413974   -8.91979902736816
C          -0.46249239307049    7.66633856819966   -5.93117025730501
C           0.95930456875911    7.99726888404919   -6.27047322525488
C          -1.05870331972796    8.27482614378256   -4.85362160287738
C          -2.72133661216997    9.46881849133424   -2.50529183720708
C          -3.52793563889152    9.98544450171505   -1.52498173342886
C          -3.17645485988820   10.92524497590333   -0.53754224247508
C          -4.20814332237916   11.40281634092147    0.32690662802712
C          -3.97718769847361   12.47704060415535    1.23239903724665
N          -4.96643978535446   12.91166727877167    2.02608156355647
C          -6.13773015747229   12.33226402931491    1.95763025798715
C          -6.36375911847947   11.27485029245450    1.06508837114912
N          -5.42216111600787   10.82905643983574    0.27197285756876
C          -2.71771349158334   13.13618389656558    1.30959693774484
C          -1.63609015941819   12.49296713952672    0.63809387986795
C          -1.86750657974664   11.44214172318740   -0.30658660376152
N          -0.82148081346270   10.92001208602864   -0.97291674269360
C           0.38767663556294   11.32199004096725   -0.67695072728457
C           0.61604096445857   12.24113849746652    0.35649181671931
N          -0.37886102295346   12.82344423235694    0.97414999852097
C          -2.60205012479394   14.30783344035543    2.08530324831203
S          -3.76604929171915   14.62328430388721    3.32098110360731
C          -2.92544651053078   16.04804758805667    3.88968376560703
C          -1.81084223029556   16.32747593287027    3.06412290485271
C          -1.65122277432365   15.35959671967412    2.02825796925956
C          -0.70219865693770   15.58293127888422    1.02692157273925
C           0.15729618357824   16.66167678030189    1.08030391726560
C           1.13376600988926   16.87396097713568    0.01584103350566
C           1.68384682692699   15.90895122565474   -0.71045011180162
C           0.06537932508309   17.57234092782040    2.16550197826669
C           1.01426511258272   18.72515054055711    2.28152076791707
C          -0.91348739994085   17.40610628877507    3.11454160653901
C          -3.51038550367856   16.68531607820145    4.99385147570264
C          -3.07679727795360   17.81582584996744    5.63163421961568
C          -3.62810490648472   18.51616795722000    6.71945649374347
N          -4.72733300741233   18.26393176019642    7.51660959993869
C          -5.68189328895315   17.18721199090593    7.41835259274016
C          -6.71154361646362   17.43546482355793    6.31781334123861
C          -4.90216296986989   19.25735174800151    8.49912384660915
O          -5.80810124087034   19.23451991188063    9.31012536746440
C          -3.81562855118855   20.18679845571671    8.28541007994040
C          -3.05800632299761   19.70070962711318    7.19294498187352
C          -1.96302519100902   20.60110733134221    6.95864331771420
O          -1.05647389252272   20.60127505444039    6.14488788295919
N          -2.12364016599336   21.59505545058698    7.94791364272007
C          -1.23735566455768   22.73002504058756    8.00675170828080
C          -1.85613131935889   23.96919083477213    7.36289651212917
C          -3.22404952864011   21.36032752298712    8.73905958716410
C          -3.61335354226506   22.20681722160392    9.82782056064379
C          -4.69244043383666   21.97093953384525   10.57844991999927
H          -9.13914937579879    2.43681281201082   -8.96217460744312
H          -5.63850620861611    3.18692166485026  -10.14783319062859
H          -7.22608596021247    2.74507066801182  -10.82886591591383
H          -5.58077868265688    1.05733513745043   -8.87017833772979
H          -5.77335193371567    0.73275198489384  -10.59647541991121
H          -7.16323972114506    0.60427216258232   -9.51202814243675
H         -10.65485587666537    5.37363239889717   -4.33321891781214
H          -9.34167449581660    6.54770010937535   -4.08104034763665
H          -9.44241177867274    3.67579008720120   -3.01214835592566
H          -9.66519240027673    5.14127720752457   -2.05154248478645
H          -8.08782907800515    4.78176352953471   -2.76538577651841
H          -7.06447070048055    6.51411135343831   -4.18149194448011
H          -5.12599473004646    5.57801411406598   -6.36551399730994
H          -3.07137441373156    5.75445950428122   -7.00108748627605
H           0.51147834626670    5.98680481215180   -7.81691931063693
H          -2.27461124997743    5.68084486439622   -9.03872594164084
H          -0.67786868355365    5.10993693073890   -9.72056576386498
H           1.59908972568325    7.12330603539617   -6.14800842870234
H           1.33198095872874    8.78442375633697   -5.61970274426707
H           1.03997679112022    8.33310619958590   -7.30326032712617
H          -0.49723504612546    8.97345951324226   -4.25159499789161
H          -1.69187127592394    9.78923688938520   -2.55156597814313
H          -4.56697294053888    9.67898471313603   -1.49841050338856
H          -6.90613709729376   12.70437372802514    2.62031931410355
H          -7.32378117768331   10.78134298297658    1.00015990161561
H           1.19722670733381   10.88590520541993   -1.24713378985714
H           1.61192162053932   12.49908280171934    0.69092188004966
H          -0.66440282425893   14.92586925861881    0.17579651845625
H           1.42199181376940   17.90027627441990   -0.16686248500571
H           1.46036082010456   14.86833753995035   -0.54419180253499
H           2.39435294465362   16.12497436845858   -1.49021137347505
H           0.86138021043660   19.43266691855127    1.46619572239507
H           2.04588670450810   18.37912826563460    2.23815114616583
H           0.86019942141057   19.25179856285057    3.21989365855878
H          -0.98115069003580   18.13723559374363    3.90145053159436
H          -4.40799392830293   16.19294328551245    5.33957262240653
H          -2.18159987000741   18.30130288131727    5.27765860395545
H          -6.19222529017815   17.15325144255501    8.38616513914883
H          -5.15517855307635   16.24145868641694    7.26933378124416
H          -7.28021182764047   18.33396450963132    6.54485788963487
H          -7.39805604212319   16.59518798856806    6.25740242181991
H          -6.23016348260282   17.56754072825133    5.35144476609891
H          -0.34110695905818   22.43869970467539    7.45099885371313
H          -0.95824007160890   22.92906385209231    9.04550874599136
H          -2.08635288540347   23.76723812094890    6.31961645052286
H          -1.15632372281462   24.79914910938491    7.41086090759956
H          -2.77515439407499   24.25407130438986    7.87049673911333
H          -2.98474465661252   23.06304338284783   10.03138540341670
H          -5.33008677918479   21.12244052815044   10.39563864990574
H          -4.95685834335844   22.62067712288692   11.39481157934835
