106
 SCF done       -180.079351033477          0.000820242262
C          -3.63759155596502   -1.68893001338271    0.98464881702866
N          -2.69880328504613   -1.20559739052379    0.12845025156067
C          -1.74994485294023   -1.99368735400003   -0.61591350703506
C          -0.61287378930273   -2.49121384087134    0.27312305354128
C          -2.70217033986158    0.21215333442092    0.10107605311806
O          -1.95099159669245    0.86820922103380   -0.59240226294077
C          -3.75146241744850    0.56657338598031    1.02115458714764
C          -4.30817951905118   -0.64029430674509    1.54961472941100
C          -5.36358395060785   -0.26648920182225    2.46510969936245
O          -6.13707253187983   -0.91639095438262    3.13367452534026
N          -5.36356802728437    1.14658469015600    2.44351180063151
C          -6.33737369091793    1.86104467720059    3.23087861017346
C          -5.80283494387496    2.21942326375200    4.61669434569033
C          -4.40254283379672    1.65105177630940    1.58966867260189
C          -4.08154299710224    2.99918861459782    1.27995579597743
C          -4.44776476761469    4.14234294057692    1.90977578405020
C          -4.01513105693925    5.43359346567446    1.51048946152960
S          -2.93268387454764    5.64687080168240    0.16637226142222
C          -2.85180952979062    7.36377062706918    0.44170981743180
C          -3.59328557898198    7.72995916448863    1.55834743419264
C          -4.29892547674812    6.65095842599438    2.12027269582639
C          -5.30843939341882    6.80187759912916    3.22534345143705
C          -6.71091284533571    6.43332647764673    2.72357873264830
C          -5.33666806186605    8.23932473614384    3.76003872869059
C          -3.95999172471864    8.88147438860494    3.70869879306838
C          -3.52164303852574    9.06628176691656    2.24630152245313
C          -2.12475551747194    9.62216173916244    2.24984212285833
C          -1.83132064274432   10.90292703354426    2.12947983766016
C          -2.11050393521497    8.13353779314386   -0.49932814734738
C          -2.28134653177290    9.45306614916778   -0.73518345675516
C          -1.54038179151138   10.21611830185494   -1.68061870275748
S          -1.82700760654589   11.93128448550383   -1.77970271567220
C          -0.65331459060583   12.13215904282187   -3.04431048163362
C          -0.07590301995120   10.90135548992691   -3.35719034873715
C          -0.57575544395098    9.83565773508630   -2.58566400839412
C           0.91291948410157   10.69844768346673   -4.33402818493790
N           1.72051929325463   10.48568916127547   -5.12132705936323
C          -0.43502868456999   13.43344156651164   -3.56779485866645
C           0.38030367354942   13.75240295361154   -4.59916709482808
C           0.56888593647713   15.08311542181791   -5.07400142377917
S           1.55189135002929   15.35680006334676   -6.48573411104866
C           1.29226012405577   17.05978543666962   -6.40791257058237
C           2.01787650971758   17.99196444504371   -7.30014583320802
O           2.38136605472499   19.07690477203629   -6.93245258114777
O           2.30111316354497   17.53708424884242   -8.52445065620369
C           0.48820214104459   17.40242393257815   -5.33182519586689
C           0.09821977032224   16.27568733510568   -4.57846480673355
C           0.07193027520403   18.73882287079475   -4.98655954753323
C          -0.29406922300869   19.71067742946791   -5.85099992671304
C          -0.64894266036940   21.08300296522349   -5.50915433916236
C          -0.52187797654084   21.67751844299993   -4.28355722599203
C          -0.85576204354520   23.02356081477857   -4.01803964745118
N          -1.11668676060488   24.10378840432205   -3.73110741960653
C          -0.05761768529914   21.05028678806807   -3.10741122339041
N           0.29151068998387   20.61592746966456   -2.10355377048621
C          -1.12570479211362   21.73232515858821   -6.72213567129942
C          -1.06686858708018   20.79844213344490   -7.79621262111202
C          -0.53670803549094   19.51910947756942   -7.31056309707746
O          -0.38798195749646   18.50396024972771   -7.95927466916986
C          -1.45323969744792   21.12932281900733   -9.06408695610188
C          -1.92435904500053   22.43522592048712   -9.32160606589011
C          -1.98986022040934   23.37534738386233   -8.25229776058458
C          -1.58351381174465   23.00399183721921   -6.95080528437113
C          -2.46534703830020   24.67551744025117   -8.51971505466829
C          -2.85683867488986   25.03187069527254   -9.78137630370119
C          -2.79106401447439   24.10585197262260  -10.83353800657062
C          -2.33410069581006   22.83568086978357  -10.60886536387119
H          -3.76579412438663   -2.74643702582733    1.12508379457091
H          -1.35256022173692   -1.34098878206677   -1.39797784607287
H          -2.26853215319921   -2.83796547063939   -1.08004899691837
H          -0.08839577531807   -1.64700885828963    0.71388275715955
H           0.09201707669331   -3.07026651328375   -0.31678503159394
H          -0.99785809124484   -3.11878517786278    1.07408399006455
H          -7.18910684333368    1.18325646264901    3.34826912786036
H          -6.66908538141415    2.74542042718532    2.68197472138688
H          -5.59233729647191    1.30785365744660    5.16970884698722
H          -6.54545108107564    2.79437958821499    5.16364091732039
H          -4.88340255289326    2.79727911958218    4.55013656279101
H          -3.40951224502492    3.07806154496433    0.43283266025477
H          -5.05265020256095    4.11491295620739    2.80093605556539
H          -5.03469033389209    6.12329406036977    4.04242234005530
H          -6.99285884521334    7.08593383851801    1.89989447917275
H          -7.43391050759067    6.55922007287750    3.52646155887829
H          -6.76180805234233    5.40834776824572    2.36933887985098
H          -5.71493563515979    8.23649906864486    4.78346569322835
H          -6.02314571896087    8.83648845691670    3.15527757982179
H          -3.23438265648292    8.25011007300590    4.22645032779018
H          -3.97479422365456    9.85453515375794    4.20172881486297
H          -4.20534310676759    9.78109378471268    1.77255860942708
H          -1.34324797366371    8.89553770486461    2.42701345616598
H          -2.59064613922882   11.64960575919407    1.95992610759087
H          -0.81926151594980   11.26328311444239    2.19292339594182
H          -1.40548677195379    7.57331341082146   -1.09855676905132
H          -3.03276637578970   10.00140373002848   -0.19048506850686
H          -0.23456966587087    8.82335926238526   -2.70608873662079
H          -0.99692176843002   14.21641689282428   -3.07679546140973
H           0.92798920078274   12.97877347069672   -5.11689619237106
H           1.84990290913838   16.70695081486034   -8.72945683941573
H          -0.52696810450539   16.35274098868976   -3.70765692885893
H           0.02671489646040   18.93022333967386   -3.92206361502290
H          -1.39475054075038   20.40277556081447   -9.86087832110604
H          -1.64710561850891   23.73853898714879   -6.16388293641579
H          -2.51271677839953   25.38528320841676   -7.70696106436732
H          -3.21912616340563   26.03012869846585   -9.97611252963996
H          -3.10411714750374   24.40446071522319  -11.82279361114536
H          -2.28030057265361   22.11871790668889  -11.41494435016419
