96
 SCF done       -162.015003150081          0.000674501539
C           2.02933633228195    0.40936709773994   -0.43852120665076
N           2.39033152059486    1.61227564479943   -0.96242041325490
C           3.48915994447561    1.84081915333432   -1.86667060273330
C           3.18978333383381    1.30175288319975   -3.26291813896485
C           1.50257120965177    2.63385020522784   -0.56270630998903
O           1.62487694659229    3.79810239370449   -0.90265026657739
C           0.54495403021334    1.95794549309851    0.27470536870362
C           0.90935559306500    0.57534485997204    0.32643853925568
C          -0.06110355430334   -0.11071817749613    1.16006741230307
O          -0.17072298519242   -1.26844105441214    1.49524547870890
N          -0.95741053398500    0.90409265033275    1.54518906713911
C          -2.05212804666661    0.63646320473375    2.44764070295110
C          -1.72482479320802    1.06659992089673    3.87497569883373
C          -0.60708420004533    2.13274436608288    1.03327628913258
C          -1.36310983279924    3.31014986181258    1.25734422757024
C          -0.97207115632469    4.53083390105247    0.80170815760893
C          -1.75971853172223    5.68950571452176    1.00798355324974
N          -1.39115919156468    6.95010968190598    0.60303494247181
C          -0.18859349679223    7.30528296501431   -0.11259746595328
C          -0.27911141346518    6.95625425571749   -1.59562958333564
C          -2.36647236151652    7.91636265584149    0.92129766160322
O          -2.25151403007758    9.09765197743629    0.67395285403044
C          -3.41053386945803    7.15750223189918    1.57803516130602
C          -3.00761402383279    5.80020117657940    1.62344935627801
C          -4.05739095570487    5.05989647991431    2.27977623108789
O          -4.16272587881823    3.88306854095585    2.57928018148716
N          -5.04375189742630    6.01912925356072    2.57124877418660
C          -6.24639237061165    5.61671094471012    3.25947159685873
C          -7.34324872510457    5.19606049391884    2.28332879251569
C          -4.67318228707418    7.27652376103617    2.14778133124282
C          -5.38973104168242    8.50483209344149    2.23751092175445
C          -6.69605212901125    8.71763449308243    2.48818137273638
C          -7.27266547145400   10.04701426212960    2.50545930474856
N          -8.60435658479286   10.10040691357617    2.61625070355656
C          -9.15772527561997   11.29979271190057    2.60938931889340
C          -8.41155654608537   12.46064767791972    2.50727900676827
C          -7.01811568895880   12.31131141957054    2.42475427064092
N          -6.46730866399979   11.09867816596826    2.41823881314308
C          -6.14921784745432   13.46552198755208    2.36556510754845
C          -4.80730960161331   13.36674535720372    2.35539515514378
C          -3.91365499876309   14.47979694820733    2.34369859578652
S          -2.20020162322261   14.21782783596956    2.53971825595570
C          -1.86778607260007   15.91774171923034    2.48952196214900
C          -3.04109782461266   16.64419425937027    2.28290409202218
C          -4.18283703990024   15.82014957467991    2.22251163717263
C          -3.11845272375722   18.07155703645696    2.00365211753897
O          -4.12726412833974   18.73166983661144    2.05616765271760
C          -0.54040876853244   16.37648278541616    2.72901426210853
C          -0.23395606892158   17.58522546732717    3.25043099617368
C           1.09133577320715   18.05484073898186    3.49132760845892
S           1.31243754335756   19.59371824475270    4.28822734221514
C           3.03423201237581   19.45144208102463    4.23201262352198
C           3.41149405845229   18.27284943019723    3.59960710340876
C           2.30634045683528   17.49049389942650    3.19837730051945
C           4.77864429001048   17.90407445717780    3.25057386274530
O           5.12660197160540   16.80375638171382    2.90159178272070
C           3.84025576671573   20.47213388383869    4.84898312677253
C           5.02956305124384   20.27312016731070    5.41271329638495
H           2.60080214355696   -0.47692922336794   -0.64294681227522
H           4.39169676531000    1.37131237259219   -1.46335097592767
H           3.63546086988400    2.92358125079577   -1.90660111187133
H           3.01934737906985    0.22787014397760   -3.23201938749323
H           4.02809661844172    1.50293676985730   -3.92391639954375
H           2.30278393438206    1.78278031241886   -3.66788605404755
H          -2.21227097578628   -0.44474065322409    2.41476442553239
H          -2.95400039547667    1.14376823447754    2.09680789871135
H          -0.83405570083764    0.55138980710430    4.22712138064396
H          -2.55498674997831    0.81847218944517    4.52978099035316
H          -1.55405465118391    2.13936764751097    3.92387841944962
H          -2.29063051397751    3.22015488502666    1.80440479049823
H          -0.03935003834039    4.62881792964106    0.26531554589503
H           0.67048942402329    6.80630465347311    0.34264641156660
H          -0.07939201165171    8.38712700475229    0.00582937902009
H          -0.34160953231686    5.88082066274479   -1.73881959915658
H           0.60753059623070    7.31864010931382   -2.10749033411879
H          -1.15501041711236    7.42503225495704   -2.03796772722786
H          -6.57562622803297    6.42795103720773    3.91119584641673
H          -5.97275679710732    4.75486826181487    3.87664318884808
H          -7.57549092840126    5.99509090424661    1.58296007859317
H          -8.24429749597054    4.93373286644991    2.83086016120870
H          -7.01437219612227    4.32799620640911    1.71740373300652
H          -4.77943503961630    9.37264143352002    2.01892374119712
H          -7.41622794213389    7.93247714581363    2.64675087898676
H         -10.23753992236055   11.32188997346551    2.69147632536241
H          -8.87286230217813   13.43470513538158    2.50168291713546
H          -6.63900285907949   14.42838876173430    2.35406685247190
H          -4.36518818610721   12.38035301216467    2.37935539882102
H          -5.16392878862975   16.22889655703156    2.06334642003582
H          -2.15994782897095   18.52126654549330    1.67836205912444
H           0.24865125008710   15.66443952548588    2.53122504193920
H          -1.02784816947677   18.25531597270014    3.55005745248406
H           2.43385514567706   16.55234308197098    2.69013514422424
H           5.49671507598898   18.74516899836798    3.29229224839069
H           3.38775801941241   21.45540899560465    4.88018732097157
H           5.48157694489689   19.29814093607299    5.47313027477742
H           5.57634990445545   21.08696593035882    5.85597909137203
