105
 SCF done       -180.130265068119          0.000992398080
C           0.82385725314966   -0.75657206357407   -1.06021576472707
N           1.01783824301311    0.29379950135726   -1.90108697344132
C           1.81568946163182    0.27764299907295   -3.10147192674871
C           3.30816106699177    0.30681265792745   -2.78248768800421
C           0.39343771786510    1.46349108795200   -1.41658951603911
O           0.42729941475177    2.53082760394621   -2.00209161477494
C          -0.22401859919611    1.04582248315336   -0.18318489722013
C           0.06729318519421   -0.34402679391269    0.00047594433577
C          -0.55482188591921   -0.77126130410718    1.23685105847580
O          -0.59851769600094   -1.83815916098224    1.80591429387578
N          -1.18363174038649    0.39449547887462    1.72184951724622
C          -1.88959055402622    0.38477779778800    2.97942257271697
C          -1.04578937998521    0.96332722656456    4.11333550731061
C          -0.99126412221844    1.47661976893014    0.89081331145893
C          -1.52129760191669    2.76770189515770    1.15059440878804
C          -1.35362643426348    3.80725694728497    0.29396972128448
C          -1.85233705545347    5.11742966083224    0.51280885382171
S          -1.68457494228528    6.32453470137554   -0.73341232019471
C          -2.46349518276723    7.53698771473729    0.23404701911685
C          -2.82586611718562    7.00119827780290    1.47829213247024
C          -2.48351541082651    5.64892862822704    1.61989344445850
C          -3.46906663416420    7.69695422134167    2.51404420368144
N          -3.99145463812644    8.21751759007109    3.39457060610394
C          -2.64706344657233    8.83847458933939   -0.28768400797813
C          -3.18986329328375    9.87980178950624    0.39775372384194
C          -3.39606554239974   11.17583511952381   -0.11869529232546
S          -3.03622648747529   11.60193569215693   -1.76453258415497
C          -3.59158128770908   13.23739900655871   -1.51236685948038
C          -4.00282939971614   13.43039825026558   -0.18983684790117
C          -3.90632348942074   12.27034770405320    0.58227277866887
C          -4.28723195004409   12.21804370458746    2.02797454331592
C          -5.07551006590623   13.46098742856885    2.43801606385221
C          -4.41230508472734   14.74201771058735    1.90427605856853
N          -3.03994949099836   14.94718265237448    2.33172071497447
C          -4.45704951539209   14.73614816043410    0.37241006776308
C          -3.60108515841622   14.14130605799741   -2.59756472051053
C          -4.21275001690332   15.37586676288049   -2.69585803504238
C          -3.98385176087697   15.91401691039853   -3.98657423020974
C          -3.15093345581797   14.92621623437333   -4.70391927461928
C          -2.94434436604097   13.87411037036786   -3.87370989276114
C          -2.64607586501177   15.03887858556078   -6.00396195512399
N          -2.20941484221254   15.10290401568159   -7.06466749292520
C          -4.46681732531230   17.10674462307410   -4.48200561085428
C          -4.25574405784316   17.66754095785842   -5.77502470885973
C          -4.88248656741101   18.89629417692028   -5.84493679505597
C          -5.57134138340734   19.11702656881054   -4.58359405192147
C          -5.32835861185661   18.05759057800695   -3.76498031005239
C          -5.85790176109180   17.90651078262800   -2.47937455941197
N          -6.31223887733514   17.79746240096402   -1.42884623075092
C          -4.88779775146223   19.74271235458883   -6.98477541388757
C          -5.03206735648612   21.09884340445280   -6.99490548506117
C          -5.19783375714334   21.94071723625870   -8.16587278135326
C          -5.50868630967664   21.51729808896416   -9.43210989319871
C          -5.68457641491215   22.38186894290373  -10.53258107618610
N          -5.83616266326903   23.03268405248750  -11.46612276408506
C          -5.73201782356387   20.17553469016923   -9.80683468631059
N          -5.95312951091847   19.11321230548108  -10.18219613853563
C          -5.07063642761521   23.32947261414271   -7.74102750243914
C          -4.87428685949017   23.35651464761790   -6.33095407880890
C          -4.84201209039589   21.97982825587133   -5.80953085883240
O          -4.62186781656437   21.64521969388149   -4.66554295247647
C          -4.73199145555576   24.52691951667774   -5.64295926983798
C          -4.78493130521984   25.75012681090981   -6.34759536094309
C          -4.97602845268324   25.73258769521703   -7.75954709794722
C          -5.11586523713159   24.50398449563476   -8.44499827290370
C          -5.02400198076740   26.95917968207097   -8.45286654461371
C          -4.89132130973925   28.14629834730173   -7.78542064990174
C          -4.70342651814650   28.16216765760745   -6.39520187922118
C          -4.65165350317320   26.98957422524687   -5.69153112144910
H           1.23199157873364   -1.72544155424300   -1.28074609233235
H           1.53808041858126    1.16903556234801   -3.67030239860272
H           1.56762059109960   -0.61373481093289   -3.68509478486525
H           3.55235861533379    1.20456099635173   -2.21982890835121
H           3.88299469065444    0.30623904808144   -3.70419268060598
H           3.59216744939965   -0.56193902411285   -2.19251135558671
H          -2.11134990123478   -0.66529420694904    3.19089441104439
H          -2.83303210487855    0.92882327158851    2.87625554031946
H          -0.13767086158417    0.37777216225633    4.23311166366258
H          -1.60599780953308    0.92962033218537    5.04367320365859
H          -0.76639594009829    1.99467608758602    3.90823684581189
H          -2.08210603254652    2.90393968419227    2.06333790219800
H          -0.80766285981241    3.64843941384073   -0.62682596980319
H          -2.68948474650658    5.09279651209192    2.51688300063901
H          -2.31926875841967    8.99197669963234   -1.30805115735207
H          -3.49450015523658    9.73219134290022    1.42300900781414
H          -3.37734716239691   12.13346868756949    2.63294820673832
H          -4.88079071519944   11.32343360390192    2.22927208379005
H          -5.14760945224326   13.50066528693132    3.52664108005798
H          -6.08842993215456   13.40327205050694    2.03639889446037
H          -4.98087382321727   15.60884827983833    2.26044985654116
H          -2.44139323863939   14.20297562272945    1.99147611049154
H          -2.97719560680024   14.96923568007979    3.34285866334955
H          -3.81525090917700   15.54031378493524    0.00788421786938
H          -5.47795553187292   14.94361823840681    0.04136003909608
H          -4.80885745044761   15.85831118933555   -1.95232476325551
H          -2.37868928751326   12.98638434993894   -4.09100570290887
H          -3.66224300433657   17.22110402707666   -6.54958689817889
H          -6.20346633680912   19.95303902689367   -4.35825000289153
H          -4.73200419353273   19.23415019201767   -7.92913208667469
H          -4.58356355378135   24.51898934188946   -4.57325244102429
H          -5.25216229071764   24.52442905591764   -9.51456754059195
H          -5.16966774285951   26.94209630761607   -9.52303111121005
H          -4.93042065422203   29.08044371026689   -8.32541957514908
H          -4.60001702330294   29.10800546853834   -5.88471390847244
H          -4.50724696524624   26.99509210832082   -4.62098190713416
