100
 SCF done       -172.186302511310          0.000423755590
C           0.59130404255406    2.65165318987703   -4.74485286720473
N           1.14721604447363    3.89497277564272   -4.79073489312468
C           2.05839435144283    4.37506507957144   -5.79668281149307
C           1.35840101587557    4.60546553280138   -7.13349891911643
C           0.67793671449635    4.70843010698557   -3.73793493005005
O           1.02206790084457    5.87066925357093   -3.59313755767626
C          -0.21072680372018    3.85252417318304   -3.00436866730488
C          -0.24979431075947    2.58487861552351   -3.67292669694245
C          -1.17870802234126    1.73358811146186   -2.95848556325731
O          -1.55277588126799    0.59617304929660   -3.14281509656104
N          -1.64633618381717    2.54455110903007   -1.90664181449414
C          -2.55963083750579    2.02579277163411   -0.91886479871810
C          -1.85824413425028    1.68632716746641    0.39401771209141
C          -1.06550863027935    3.79463324482579   -1.91289418459943
C          -1.30219860098145    4.77204385033308   -0.91514992140860
C          -0.51477502190575    5.87100441564585   -0.79441297259595
C          -0.62285834700312    6.81293106395377    0.25401226435284
S          -2.12913147045962    7.00590265597367    1.10942020011185
C          -1.49495675070712    8.22793244174844    2.10460086658095
C          -0.16997808239544    8.49546380000827    1.83037532812379
C           0.35394942710001    7.67060990688473    0.77621284215887
C           1.72393146710578    7.78820970953193    0.41752224638964
C           2.44664152895368    8.83084805933168    0.98424732581091
C           1.91406828799473    9.64576108159428    2.00690324535975
C           0.64219021616187    9.46817121531773    2.45406744819660
O           3.70724082823514    9.02197629935586    0.53824308238537
C           2.41049831955439    6.90712001172785   -0.52065965247248
S           3.27328955896792    7.60200384451671   -1.84681549184923
C           3.69066898063278    6.08491667371498   -2.48190868792835
C           3.19830719910776    5.05197166918057   -1.71849132900591
C           2.50896574802636    5.52342423729832   -0.54925841989546
C           2.01790821652276    4.56919614559775    0.39883855985268
C           1.99303508728022    3.24058505510422    0.02000082123567
C           2.58269011831909    2.80288128013086   -1.19356712651817
C           3.23009763285092    3.66888784408031   -2.01194106321953
O           1.48129596083382    2.25240207263416    0.79847808894090
C           1.63503116206330    5.01000907361031    1.73239552522525
S           0.07044168411489    4.61188340626183    2.38872254796603
C           0.31767135201227    5.56814643153189    3.77695387365990
C           1.55187880553222    6.16974246520013    3.76662832026437
C           2.34378402239398    5.80707151010499    2.62233818857986
C           3.70095807017973    6.27699649264858    2.52176011782738
C           4.09890429693499    7.28533319487744    3.39741178784944
C           3.26799243035511    7.65824071931945    4.49526857762068
C           2.05872362651821    7.09103427274840    4.71479141331768
O           5.28995190769484    7.89414401032603    3.38232866438926
C           4.62637813938689    5.67853630090980    1.58868554885650
N           4.65376792579000    4.32092788742951    1.34715700720362
C           4.26358499921124    3.28431463261257    2.27437579373299
C           5.28084436223019    3.16614379927706    3.40741156218453
C           5.50535497224352    3.99733731479901    0.26938688577604
O           5.69657937156145    2.85994017065033   -0.10872527784880
C           6.04683688787233    5.26494117984551   -0.15561014564095
C           5.55200241469307    6.26518885371009    0.73948489142384
C           6.19145087581084    7.49662744103809    0.39381466027495
O           6.22204266997870    8.57639234941897    0.99037807537795
N           6.94651344103104    7.21581369456443   -0.73658421512889
C           7.65076613868626    8.25859280882421   -1.44035977924897
C           6.84818662072464    8.76325765159673   -2.63731637907991
C           6.86174831346755    5.88031481954205   -1.08540408343067
C           7.51814355945101    5.32190390276793   -2.23192513858384
C           7.42219401212661    4.03346418846512   -2.56488637219302
H           0.84170917389839    1.90635880196841   -5.47672815012699
H           2.87770761019638    3.65820514758640   -5.91594533411453
H           2.45832956109557    5.31954404333145   -5.41704701965084
H           0.93452692340927    3.67736886272004   -7.51039305040587
H           2.06769067503684    4.98689146247809   -7.86302266076797
H           0.55650721404817    5.32975167938519   -7.01362146648890
H          -2.98095964143270    1.11558310064177   -1.35553331894424
H          -3.36842090942994    2.74408591938359   -0.75212673565507
H          -1.02929215297467    1.00839027591348    0.20747406557615
H          -2.55914406829142    1.20656471366415    1.07183168886296
H          -1.46896647615897    2.58297836096391    0.87072199421522
H          -2.08474280266855    4.59254465135804   -0.19088352433061
H           0.27348730252987    6.03076821196459   -1.51450276520028
H          -2.11878782400395    8.70729906082779    2.83248269357888
H           2.55375293970316   10.39884287699136    2.44605112013641
H           0.23787099586444   10.06225828349942    3.25819284168047
H           4.19321429550136    9.66309378470574    1.07375622085278
H           4.23492041002354    6.01301949295861   -3.40198914975935
H           2.54548198433280    1.74543695469208   -1.39808958100653
H           3.74577699966791    3.32767353331418   -2.89552983072175
H           1.10848487467005    2.61615153069410    1.61255874777190
H          -0.45897219166873    5.65827686573635    4.50874621274549
H           3.67763291915190    8.39353097456976    5.17011548379901
H           1.46209025880784    7.34380420868797    5.57737757925858
H           5.66043399711297    8.05673102442098    2.47549610601560
H           4.23069143370823    2.35505138295600    1.70037193604803
H           3.27684342512050    3.49056757393137    2.68850427262185
H           6.26521362131322    2.93795727274893    3.00558433376162
H           4.98767555338604    2.36885917497558    4.08477752742684
H           5.33768432384949    4.09836706479500    3.96667926155426
H           8.63445836251251    7.89581603190819   -1.75054460321681
H           7.78758945198358    9.07059220759539   -0.72044620463296
H           6.68792672071746    7.96680847996578   -3.36034153897020
H           7.37976896064389    9.57674110767223   -3.12330381101251
H           5.87768059992963    9.12418772031098   -2.30496926443876
H           8.10966975423107    5.99806271917678   -2.83386935575337
H           6.84291109762382    3.34290313143133   -1.97585406943613
H           7.92798700056391    3.64232622663849   -3.43083926497286
