130
 SCF done       -244.578705037820          0.000993195311
C           1.65113910835232    4.28130246724029    5.06824275097099
N           1.84967196457236    5.47159387348497    4.47288081315093
C           3.11401273315464    6.01216483632784    4.03902342704673
C           3.90947811418658    6.57291795866023    5.21460073496820
C           0.63054845958824    6.20479782686423    4.36304406694894
O           0.55596594829496    7.27801802293290    3.80872081031022
C          -0.34747708490028    5.34097434758001    4.98586737660642
C           0.31354156040587    4.15652982456122    5.38712747361133
C          -0.68052750246470    3.24852658932141    5.94069708817457
O          -0.59357434222621    2.13822388537259    6.40545958840911
N          -1.89301257194132    3.95214195462280    5.80689801887591
C          -3.11348572015652    3.42063372460491    6.36479670095657
C          -3.35802073909014    3.96855333636616    7.76887780734123
C          -1.72078283028736    5.20607038377552    5.27080314576029
C          -2.74825377965141    6.11844021026360    5.00510430817811
C          -2.47518776304099    7.43564157187938    4.69671399085224
C          -3.35978580101259    8.42157530152253    4.26677188196207
C          -3.11860314077982    9.82433061044206    4.39557487459224
N          -2.06638384506163   10.45776601518846    5.07990534515682
O          -2.04101425784331   11.67730493236019    5.04349620064999
O          -1.24861862756753    9.77982418992414    5.67814199650829
C          -4.16850461828093   10.52430892381415    3.80516285484000
C          -5.09113341041543    9.60099835403353    3.30923394114130
C          -4.64890072481613    8.30546634818451    3.58540949019940
C          -5.31190637250360    7.11657901418151    3.17776174552602
C          -4.75602380177890    5.91543025146012    2.75842426528858
C          -5.77565306815703    5.01166863485086    2.41653785006292
C          -7.00066230565612    5.62491151306453    2.60229783124377
N          -8.23901701361396    5.02797324023568    2.44995022431248
O          -8.29161838479882    3.84725625469753    2.15353028122573
O          -9.24841694406987    5.71670469397010    2.64552280684089
C          -6.77054498116273    6.97767902142969    3.07611391911960
C          -7.68742084883031    7.88128242839292    3.47754470205903
C          -9.12318903280907    7.84116470452315    3.35378977259001
C          -9.95593344863881    7.86812500039835    4.42955842713359
C         -11.37561826126420    8.15451749619009    4.47938863120398
N         -12.15593540327270    8.63773651726633    3.42400368926654
O         -13.28942615215743    9.01248957342798    3.68857930809327
O         -11.66355799859127    8.70492934650578    2.30920370267234
C         -11.79676774486303    8.02443994904223    5.78145553533281
C         -10.68623741146697    7.65207158729791    6.58461453032647
C          -9.57317769220356    7.56247035339557    5.79398920318427
C          -8.21247290661260    7.22805605147198    6.17682103526610
C          -7.62897207096094    5.89877228887164    6.14721719116456
C          -6.33739261628232    5.96035845034227    6.54784102597156
C          -6.04847391886327    7.34038520891851    6.84536057636845
N          -4.90959455873901    7.87799954711122    7.20998480089902
O          -4.87647925740733    9.25236155670949    7.42574348583664
O          -3.84253323180022    7.31645534993348    7.35504780642814
C          -7.25264596533424    8.09239078059757    6.61921975581656
C          -7.23397522586678    9.56470970831017    6.79400144774415
C          -6.10233972065507    9.91008264325828    7.77252943276277
C          -5.88952797693258   11.37788177334076    7.68032918433346
C          -6.23926915939451   12.07737839612493    6.47453372959926
N          -6.76993333900429   11.50999630919406    5.42411186872563
O          -7.08926383205799   12.00276728444383    4.36412830130599
O          -6.98780645406595   10.12466431901695    5.50101033169608
C          -6.01716627004338   13.48441836594615    6.69220818326277
C          -5.61671884100281   13.62739895632977    7.97246655917422
C          -5.53703027535014   12.31729909891415    8.61354359099376
C          -5.20084735682395   12.14870605196793   10.00124177894700
C          -4.21233569686811   11.36454759413524   10.55423527902607
C          -4.11084854232452   11.66083463138988   11.93170890510495
C          -5.04590742704570   12.63419621436456   12.24958497635882
N          -5.25421146966997   13.14684851482491   13.53536561134442
O          -4.52204918208183   12.75549597857505   14.42759543935089
O          -6.15071022578529   13.96486171540000   13.70161035072381
C          -5.80390407181087   12.93952067222437   11.06642952586412
C          -6.96988574189999   13.68550410679918   10.98065203194941
C          -7.86425519936551   13.53643828127468    9.92911498666730
C          -9.02750910892175   14.22236034199949    9.59930832863957
N          -9.63035587700675   15.32994854325787   10.14155724351206
C          -9.15838643092322   16.14174984490654   11.24141686530330
C          -7.96003358110694   16.99686642021945   10.84168240767715
C         -10.80431661112479   15.68967637390466    9.44584135460259
O         -11.49986438869203   16.63279068305352    9.73953071269548
C         -10.92081472159976   14.69267558608241    8.39154807245159
C          -9.83513211115239   13.82190087829393    8.50590593766072
C          -9.94593637919965   12.83683112851184    7.46160488252640
O          -9.23590406031956   11.89361935426712    7.15444724668439
N         -11.12793827852019   13.18100670693108    6.76842957076650
C         -11.58528015855758   12.35205044545922    5.67595637561037
C         -12.67316613920450   11.38240061512540    6.13021841374732
C         -11.72333328593119   14.28551776370912    7.31275835386919
C         -12.90857126467439   14.98733730151142    6.92492349654637
C         -13.80711544499573   14.70076523547917    5.97606782882239
H           2.45694543602049    3.58772989180925    5.22440697105462
H           2.88422892517861    6.81201281431040    3.33038342906422
H           3.68176597273630    5.22860717060053    3.52995008019985
H           3.34630708338114    7.36349308186646    5.70400399333965
H           4.84883860376118    6.98506988043267    4.85799471451657
H           4.12325078231332    5.79301328917139    5.94215331977577
H          -2.98426144834077    2.33556265997625    6.40696949538299
H          -3.94702773055311    3.64838875803657    5.69452128870533
H          -2.55186006281899    3.65668112197134    8.42817083377205
H          -4.29281367751259    3.57943470059228    8.16434766896116
H          -3.39154919689225    5.05615452071046    7.75862007890341
H          -3.77183863058615    5.78700693972192    5.09610307288572
H          -1.45937291026061    7.77923354244711    4.85893464838122
H          -4.24115110962204   11.59402658104264    3.74616942919010
H          -5.95324647869864    9.86448889190195    2.72729004101467
H          -3.70567275158584    5.71974157513203    2.65280922279059
H          -5.63768264472474    4.00755406239194    2.06027390133902
H          -7.32897453924664    8.79643353323643    3.93356687829832
H          -9.55661402345419    8.04670726611992    2.37782058802574
H         -12.80011085305414    8.17985234942165    6.13120766413155
H         -10.72499577123657    7.47148944146708    7.64278836369290
H          -8.17373814242969    5.02176766179481    5.85469194165112
H          -5.64453648881270    5.15273559901475    6.66591813340839
H          -8.18218887790580    9.96574855265751    7.17122174483042
H          -6.38395911004902    9.60047960368376    8.78882791817534
H          -6.16597610045167   14.24087434014873    5.94791974756805
H          -5.35836033198056   14.54156772334999    8.47111803348912
H          -3.57843425997903   10.68721189629084   10.01405594904866
H          -3.42319697454468   11.21787123930407   12.62738708096227
H          -7.19636534540360   14.32788374975468   11.81957886157071
H          -7.67624865843894   12.71867290584992    9.24706325581212
H          -8.92053761626458   15.50307702165935   12.09487970807693
H          -9.99660133760755   16.78906562383035   11.51459748050217
H          -7.13405171924580   16.37895896805387   10.49785984776592
H          -7.62673020936420   17.57633570816697   11.69735892625928
H          -8.23831436307726   17.68121814210533   10.04380119499123
H         -10.71138518787641   11.78848684498298    5.33621326143318
H         -11.92494755588414   12.98691342661967    4.85590800131422
H         -12.26637841232886   10.69485668858868    6.86820859087270
H         -13.04194017561621   10.80929698685690    5.28342236241402
H         -13.50836846748545   11.91310417945198    6.58079267727320
H         -13.05585759644465   15.87613701301861    7.52710761773593
H         -13.76743243732663   13.83480350071211    5.34157741622167
H         -14.64358149383363   15.35987840936266    5.81768916509756
