104
 SCF done       -175.842298980642          0.000227007016
C          -1.92222421410717   -1.37330874892886    2.49607431972497
N          -2.66716611355242   -1.27464867674081    1.36694765536304
C          -3.42173220824913   -2.33840483834006    0.75346574976147
C          -4.73600137066291   -2.58917005822994    1.48838058300735
C          -2.68116094348066    0.05575648574363    0.86873051071855
O          -3.27906711499336    0.38355922287955   -0.13212886410938
C          -1.85556311290648    0.77860409588870    1.80827398683971
C          -1.40222771786057   -0.14443762487027    2.79999037138590
C          -0.57420295807716    0.58948675568434    3.73202685972717
O           0.01970902043584    0.25917134280444    4.73371155179435
N          -0.57910333487891    1.91418224606838    3.23671633002199
C           0.18200429858937    2.92376437545501    3.93060783236849
C           1.55323305322587    3.14056168473505    3.29311190766822
C          -1.33587773434391    2.03399680193918    2.08916325084936
C          -1.61232814491863    3.18079792927881    1.29329849890432
C          -1.11450665490640    4.43709477135712    1.37709555599211
C          -1.53319653578878    5.46314824201243    0.48581278754368
S          -0.84751579622293    7.08618341229347    0.55808876912754
C          -1.93906964822578    7.46048020832345   -0.78692292241095
N          -2.65208327537656    6.42647043859369   -1.13375644746096
N          -2.43460523034612    5.34789805034004   -0.44860141129041
C          -2.01667811540680    8.72870913784655   -1.41155733007476
C          -1.24341303743822    9.78309163388481   -1.05211922215265
C          -1.30681337787409   11.04777399647343   -1.68852008889759
N          -0.49366568734578   12.10931430483574   -1.35676790067826
C           0.56442097621560   12.11384053686389   -0.37629124632889
C           1.82230380077862   11.41725810424925   -0.88994358313623
C          -0.75553253292693   13.24102342083813   -2.14701248483187
O          -0.15291816767694   14.29106009611384   -2.03451922896831
C          -1.83072452822703   12.82637197037175   -3.01908943144990
C          -2.14497916883994   11.47774455786983   -2.71345780926214
C          -3.23172344364008   11.06759823443209   -3.57603346892323
O          -3.83473437955601   10.01960280343736   -3.68526963578648
N          -3.51218685163048   12.20978472067778   -4.34629357627995
C          -4.51855678634424   12.18416801036997   -5.38003727073011
C          -3.90329208167605   12.01943679862229   -6.76745427364293
C          -2.68221125675504   13.26129924416077   -4.03350234871910
C          -2.74819425397898   14.52754136421917   -4.66577562578949
C          -1.88466896201376   15.53627354204288   -4.38691543911525
C          -1.96554179046139   16.79019153641112   -5.04653344187076
S          -0.80975941306313   18.08511721881585   -4.76204845446544
C          -1.73876022803596   18.99724773961820   -5.94303640318292
N          -2.75521444777023   18.31749453807603   -6.41084233019123
N          -2.87638362964926   17.11987229571564   -5.92669324784304
C          -1.39557941434019   20.31957888925927   -6.32934658273116
C          -2.14791997662439   21.01849426883742   -7.21474908991540
C          -1.82528538943000   22.33445178963781   -7.63426503390667
N          -2.60412407744506   23.06808864037252   -8.50131350809077
C          -3.88017491008522   22.67818132292092   -9.04959304586954
C          -5.00344402610141   22.80819496960732   -8.02372420412208
C          -2.05089312894565   24.33162305694137   -8.77032806777144
O          -2.57196291118717   25.14619515341617   -9.50651292966688
C          -0.82442075780872   24.35453077179135   -8.00499933195385
C          -0.71990389810054   23.11450364652814   -7.31424888543793
C           0.51050740137941   23.13096545964968   -6.56038684331440
O           1.03229340998480   22.31572196448530   -5.82411803541842
N           1.08006901613448   24.38500020656438   -6.85286001746031
C           2.31915142205615   24.79686910742173   -6.23982123864105
C           2.08550501283975   25.73575504669155   -5.05851570779776
C           0.29285285945451   25.12062273236738   -7.70611365150222
C           0.64500026736914   26.43037755627755   -8.17447437251930
C          -0.13563682387372   27.14223996390150   -8.99037192188548
H          -1.80637700615037   -2.31367573040221    3.00336846351306
H          -2.81273097661560   -3.24692320509169    0.73813827364658
H          -3.62496154564473   -2.02286104453813   -0.27340376814023
H          -4.55048533145802   -2.87315315128081    2.52208938186341
H          -5.28588235119873   -3.38820637394988    0.99932151226554
H          -5.34584230638426   -1.68924721379893    1.47794366523780
H           0.31917796807806    2.54558043436260    4.94869461153978
H          -0.39498931868052    3.84993986979612    3.97962767662363
H           2.13636765343306    2.22586601814065    3.36416413660182
H           2.08412204166708    3.93175640105927    3.81579517831679
H           1.46363945143710    3.40807721506665    2.24247701865953
H          -2.32524448475816    2.98630536204125    0.50126312369537
H          -0.37476276938937    4.73339449910060    2.10243335593351
H          -2.73812905944917    8.80974976657920   -2.21403459135312
H          -0.53397592827275    9.66406475611148   -0.24325126466703
H           0.21040519271666   11.64812835297963    0.54791134421091
H           0.78486431048750   13.16657440058401   -0.17765751652104
H           1.62235821433891   10.37577817066085   -1.13195533666141
H           2.60037336683383   11.45791980796504   -0.13266853817086
H           2.18233287236214   11.91718568603067   -1.78568807042148
H          -5.12045142534554   13.09534849650660   -5.32742940981549
H          -5.15648724275227   11.32427528173481   -5.15687640381365
H          -3.23948392481178   12.84882956452346   -7.00072753433185
H          -4.69017329729987   11.98011232895703   -7.51539091510397
H          -3.33384086204808   11.09430768396816   -6.81321582707282
H          -3.51478188009229   14.69958743615406   -5.40692143836424
H          -1.10002211891003   15.40949285145506   -3.65429794184918
H          -0.50652957938075   20.75113705420891   -5.89184249138819
H          -3.03009334676591   20.54599790384305   -7.62122314857679
H          -3.81882581235094   21.65486077085144   -9.43004410491228
H          -4.06673707810990   23.35660452870761   -9.88701726505881
H          -4.82177492673094   22.16716019953711   -7.16405002925888
H          -5.94959598475907   22.52577831473226   -8.47690673537968
H          -5.07539860180911   23.83751922640056   -7.68071935545182
H           2.96272619948031   25.26570875380181   -6.98951203669318
H           2.79996550032957   23.87955214363953   -5.88798203356709
H           1.56629904516651   26.63829882118502   -5.37355293403111
H           3.03788593691365   26.01478140959642   -4.61609438499104
H           1.48386757851996   25.23682411386568   -4.30280229830023
H           1.59168801109350   26.83088986730568   -7.83881598803255
H          -1.08208162655616   26.76338784831231   -9.33843610039941
H           0.15864446769721   28.12080491040304   -9.32861084501835
