112
 SCF done       -195.346054104905          0.000584156347
C          -2.22511871071210   -0.48232030590782   -5.40425063348881
N          -1.94388484125520   -0.11750782633839   -4.12312268624988
C          -1.28789885722400   -0.93961858439205   -3.13778963714037
C          -2.21861713572548   -2.02170157511442   -2.59664507965190
C          -2.42790725782434    1.17547148816714   -3.83885393459375
O          -2.28945910167277    1.71572865307839   -2.75226769127315
C          -3.04112694337204    1.60073796389532   -5.06939399363366
C          -2.89206907524996    0.53895014606904   -6.01878744917454
C          -3.48790962957631    0.97048725098691   -7.26838950654947
O          -3.60627224267600    0.43086231222206   -8.34524204177123
N          -3.94901257078061    2.27316091025689   -6.99387897840699
C          -4.65293006981483    3.04194534364582   -7.99169487408130
C          -6.16305510423196    3.01721802493049   -7.76861940697710
C          -3.69529889923080    2.65645316256922   -5.69651765199305
C          -4.04528272801207    3.92683164736645   -5.17316561278806
C          -3.81161448588730    4.25111184076309   -3.87448839654613
C          -4.10848433055171    5.50889507274567   -3.29540943519701
C          -3.90480641476824    5.92879861951159   -2.00754626770452
C          -4.34584577220816    7.30632993292753   -1.87560720079028
N          -4.81191223669561    7.72900710729355   -3.08851030924668
C          -4.68921135003973    6.68755532052950   -4.01216748352490
O          -5.01452283117775    6.79191885149218   -5.17104948697492
C          -5.17211676576864    9.07293691610493   -3.45470095939067
C          -4.11944172702795    7.73066649368292   -0.60990633992093
C          -3.50970151058362    6.57026240596847    0.10861329765139
O          -3.19261625411947    6.48440398081044    1.26807093526562
N          -3.41847882539458    5.51651887167932   -0.81148559145633
C          -2.90932761515280    4.21337753901001   -0.47184071048424
C          -4.37250423565834    8.99943466315040    0.02532192312754
C          -5.52531750522591    9.67636693610847    0.22849874493104
C          -5.23445665152332   10.92331341786215    0.92552805954701
N          -3.88963660544710   10.99741726893738    1.12890486413159
C          -3.28308647355356    9.85156953219936    0.59796200326034
O          -2.09409750884975    9.66703163218100    0.58015895107685
C          -3.14812655191062   12.12081212975702    1.63718329198095
C          -6.38686549936339   11.60502292794976    1.11743504829119
C          -7.47631771426347   10.75125729414563    0.55239509123277
O          -8.66619646318564   10.93605696582869    0.57302661425492
N          -6.87197579702754    9.60373575550386    0.02464418056063
C          -7.61737854001510    8.47017295919222   -0.45352441226419
C          -6.63661014817408   12.89275214327068    1.71566951746939
C          -6.44804722666720   13.35108200002690    2.97253263034755
C          -6.85512432478045   14.74959464309244    3.04574746734842
N          -7.31401762411892   15.12207712221265    1.82572578906601
C          -7.21421383794168   14.03901476058116    0.94439592149380
O          -7.52492621410992   14.08046210250216   -0.21778774196128
C          -7.84010248119951   16.40193078267974    1.43031645854527
C          -6.73745854712230   15.17751592878136    4.33343625212652
C          -6.23880244252525   14.00416760422658    5.11264728389031
O          -5.99100676052345   13.92565205320896    6.29212738942186
N          -6.06590073991978   12.94762316518478    4.21817593412838
C          -5.71705581645019   11.61331833063664    4.62728245074919
C          -6.91063613634960   16.49763525433408    4.87427686076196
N          -7.55307553050646   16.78895639798605    6.04572596996014
C          -8.30504477202113   15.87710420283845    6.87532212568668
C          -9.53514984602046   15.33610195457978    6.15274180647166
C          -7.51616633535494   18.17563988880722    6.33117057077123
O          -8.04336675316136   18.67181582433918    7.30308154304108
C          -6.75336194984041   18.73696583390342    5.24173192342916
C          -6.41584101955279   17.67943008165543    4.34848538856112
C          -5.56520991206084   18.23347990177556    3.32582438882857
O          -5.00535657794571   17.73664613044232    2.36606966317563
N          -5.46236412109101   19.60269647679825    3.65329481191441
C          -4.70039537896886   20.47818783145426    2.79755792851086
C          -5.59451364182915   21.22079503962475    1.80629498257678
C          -6.16546420846778   19.90818281223856    4.79740748637469
C          -6.29213121142592   21.15815847613023    5.49634697409338
C          -5.88667705318591   22.38194467575534    5.15599412777248
H          -1.92048480185484   -1.43874184740611   -5.78663823284921
H          -0.98392600405257   -0.26958423457022   -2.32895181103297
H          -0.39683363768319   -1.39219530306634   -3.58330361974352
H          -3.09248685930609   -1.56724421942540   -2.13623724039571
H          -1.69968969888078   -2.61534728402591   -1.84930635120819
H          -2.54966585481402   -2.67928644922920   -3.39742140588431
H          -4.41539171874583    2.57650912600027   -8.95259579011286
H          -4.28020429278973    4.06974884995789   -7.99329425260407
H          -6.52616161017628    1.99254458981125   -7.79463856844410
H          -6.65881257951785    3.58232548329455   -8.55293672474075
H          -6.42068060207362    3.45500084209134   -6.80688835692005
H          -4.49852990297917    4.65271112518817   -5.83024473763015
H          -3.36253841058393    3.51633888410797   -3.22021655626589
H          -6.01292613829153    9.43241712555129   -2.86072589595476
H          -5.45052117092032    9.05780585516557   -4.50806618618351
H          -4.32589804208825    9.74840793294852   -3.31150912429369
H          -2.52780961307411    4.26933602548136    0.54677170223681
H          -2.10916770363494    3.91902064465714   -1.15013704766587
H          -3.70156268007317    3.46465446423551   -0.52233918044867
H          -3.40920018155320   12.32843190104243    2.67606219474198
H          -3.34566284073582   13.01295734331355    1.03960167347995
H          -2.09081857573075   11.86473582434182    1.57456112714742
H          -7.34091278179512    8.21989653834372   -1.47852783284852
H          -8.67252438910525    8.73998605891297   -0.41788369502782
H          -7.44074853575802    7.59974886755838    0.18220433177573
H          -7.04626347749134   17.14716149063607    1.41016664636440
H          -8.62293289011218   16.71742583195963    2.12102503515675
H          -8.25386652248298   16.28523782671207    0.42942598040150
H          -6.54631187484114   10.92721503212811    4.44133675545293
H          -5.50385785741144   11.64641713743387    5.69545926543010
H          -4.83681796032995   11.25594331302334    4.09150014795597
H          -8.60964115756872   16.46000523695579    7.74896245787542
H          -7.65796526533846   15.05946947568997    7.20069390021648
H          -9.24795869684629   14.74822234736325    5.28270404505013
H         -10.17369973542476   16.15430235591256    5.82603510147600
H         -10.10293525132367   14.70048008614750    6.82627809870745
H          -4.01186182363780   19.83136353975216    2.24449205435407
H          -4.11571410170467   21.16860496325723    3.40901541864286
H          -6.08837620747021   20.50716100310889    1.15080659238645
H          -4.99441412926844   21.89184579141756    1.19757338570908
H          -6.35851266510908   21.79826174042506    2.32237193370416
H          -6.81873172949673   21.02759574141724    6.43430643443712
H          -5.38236902255835   22.62140174652900    4.23808051363899
H          -6.07066756125621   23.21135272972653    5.81768467564447
