110
 SCF done       -238.305934407760          0.000960188784
C          -5.84782808597166   -1.67801158713983    5.53581252472905
N          -6.23635178080109   -0.74432851447912    6.43635956700302
C          -6.72215201361072   -1.00169281810998    7.76918135291217
C          -5.58024060243657   -1.33187451434262    8.72669535448494
C          -6.03890271867264    0.57173724400743    5.93590814720391
O          -6.31500010165658    1.57074669128853    6.56388060262415
C          -5.49285654226317    0.35393651508495    4.61641575056119
C          -5.39130474260015   -1.04910141385651    4.40506359291106
C          -4.85177529025930   -1.25139438674053    3.07373832497655
O          -4.59315409380473   -2.25038245610659    2.44582130510719
N          -4.66728819136152    0.05760404051283    2.56718670580774
C          -4.09164090777398    0.22715746184913    1.25305286390232
C          -2.60620914255037    0.57370926273148    1.31850897651130
C          -5.03868330591569    1.01941380988402    3.47826949573927
C          -5.01919760733422    2.43362317166678    3.39251716054473
C          -4.60586962244851    3.23069229425248    2.37121522828780
C          -4.62355066657419    4.65229034705700    2.40194860038656
C          -4.13535528149293    5.36808148646369    1.27737919104969
C          -4.09709891329692    6.80388768431389    1.23945777414020
N          -3.72084168783345    7.41926916534892    0.10484209562958
C          -3.27914126442317    6.71844474416248   -0.90626493276761
C          -3.19027963543102    5.28919172070912   -0.81163792420351
N          -3.65345817363252    4.66427823888359    0.23957657841420
C          -2.64537487811612    4.53074743261428   -1.87767114740576
N          -2.21299406911462    3.92846858671622   -2.75019542999432
C          -2.90502515443639    7.40132974186487   -2.09024268305913
N          -2.59220731089944    7.95199551279264   -3.04428645730658
C          -4.47268464798707    7.59370929082888    2.34845135232414
C          -4.93426639604080    6.89133685300222    3.47809191794418
C          -5.03204144778166    5.44687565192406    3.49778721825352
N          -5.47880181231008    5.00798817769731    4.67551677540268
S          -5.72005823477872    6.25277059829981    5.65167397173864
N          -5.27870521296438    7.42125632495066    4.65412786435645
C          -4.35049417338332    9.02868473223756    2.32135786137269
C          -3.27950745115988    9.65383071726108    1.64314926623746
C          -3.15167029693308   11.08360763651182    1.57391171667020
N          -2.19032846416653   11.63902542281893    0.80753623089593
C          -1.33440224699727   10.86520280941546    0.20114830280626
C          -1.36619661034309    9.44102579919698    0.39405920305498
N          -2.32800348740484    8.88865541535850    1.08683762074932
C          -0.36655511561275    8.60030834291855   -0.15341293203306
N           0.43095602971650    7.90608919967341   -0.59375850263244
C          -0.33043342979207   11.44976555222383   -0.61324895051939
N           0.50139107748073   11.90323852341179   -1.25534786227141
C          -4.03194500269019   11.92830838644478    2.26046349956197
C          -5.07727526134159   11.32244658290450    2.96327514878216
C          -5.26082759246988    9.88677321485226    2.96293139786809
N          -6.37446307204687    9.54170097200861    3.61493265427274
S          -7.06731733566506   10.85210482547920    4.20145353516077
N          -6.02798294242827   11.94693670958789    3.66814609132861
C          -3.86230548993157   13.37392199726389    2.20872878521527
C          -2.64710404171943   13.98075441789662    2.55292427746941
C          -1.50717640313555   13.24122352876456    3.13695575492348
O          -1.46016476644083   12.09645393281380    3.47916632119375
S          -0.14202653620829   14.37116667344712    3.37041006592591
C          -1.10787916499218   15.80552381646499    2.88286127560389
O          -0.68525430489642   16.91727771976173    2.97352415854745
C          -2.44640916354231   15.35493622961720    2.43669140703572
C          -3.47688414162773   16.22296299759395    2.04091649641910
C          -4.72402757980178   15.61938826505225    1.80584929826115
C          -4.89338252069657   14.23763998676815    1.82417872276920
C          -6.20803174891063   13.78359972938981    1.32514189788526
O          -6.55729203994991   12.67826213057062    1.04406178031101
S          -7.26531652117954   15.21985285558334    1.10582131475425
C          -5.95820349463040   16.36811879368635    1.49184600994884
O          -6.12395064281012   17.55493530112211    1.50816002577891
C          -3.30805221392741   17.64919735248874    1.82287966315536
C          -2.33894644935347   18.17018263319588    1.05924053571529
C          -2.21446797036238   19.57554976459387    0.78170542727314
C          -3.19117087042255   20.45846674639021    0.49112556717770
C          -2.90688948678798   21.92732744497795    0.57429997467727
O          -1.81909299467573   22.44514204609232    0.62610555789942
C          -4.23258416227149   22.57001826600313    0.63903287346444
C          -4.53932115700400   23.88022242814974    0.87453402754183
C          -5.89625055419559   24.26591574124792    0.94065988860061
C          -6.91361011618507   23.28119491225713    0.76934569525282
C          -8.26579801409719   23.67122365047912    0.85394251672561
C          -8.59243252577829   24.97608980497036    1.09372185701225
C          -7.58558550495327   25.94958694999349    1.25947829712519
C          -6.26577569126049   25.60351049293172    1.18415004030170
F          -7.93582635353840   27.22018802322803    1.49463996581055
F          -9.87648822749807   25.34481590114328    1.17543942523586
C          -6.56684722791385   21.93500686660362    0.51764814138048
C          -5.24396365776532   21.58609365157503    0.44277364669165
C          -4.60698278665715   20.29901395747834    0.18419961643785
C          -5.20285862003427   19.24346037541579   -0.44308774903414
C          -4.55383030862119   18.04989932980483   -0.81873980875083
N          -4.10751680409995   17.04502350438288   -1.14845089420465
C          -6.55933306207772   19.23585739712631   -0.84227953149359
N          -7.64699264289610   19.18266875157637   -1.20114283490641
H          -5.92843245916694   -2.72745750018262    5.75261572522174
H          -7.44209636295950   -1.82408766636074    7.73496837497299
H          -7.23052411038875   -0.09083543955166    8.09628748846663
H          -5.04688271003069   -2.22080230181735    8.39715921801962
H          -5.97459760921270   -1.51043841913861    9.72288108781114
H          -4.87953826777615   -0.50189234881636    8.77295787182211
H          -4.65638759294634    0.97863326085702    0.69715038596540
H          -4.21289019538989   -0.73786689851722    0.75141551939139
H          -2.43407570781439    1.47279438500883    1.90560334027098
H          -2.22272944166895    0.73310243540829    0.31463234541193
H          -2.05658674968556   -0.24609148249320    1.77446420813113
H          -5.38969848080952    2.91324698512959    4.29021571523611
H          -4.22047836066809    2.82663693162779    1.44889142092013
H          -4.07563323380410   18.29020243659116    2.23516623239443
H          -1.56447599486416   17.53694846639622    0.64771097835706
H          -1.21118930775470   19.98534171490718    0.85513873024816
H          -3.75699192214984   24.61067425931894    1.01377625055400
H          -9.04814972213611   22.93966288906716    0.72555997804972
H          -5.50773632421660   26.35995729086225    1.31394671149620
H          -7.35314457226229   21.20569543382627    0.40603292637683
