111
 SCF done       -206.579343743471          0.000848213392
C           2.95772452975867   13.44248384132982    8.09413171839377
N           1.69383248458087   13.00471578861597    8.33488417461445
C           1.02256212479388   13.01928296297209    9.61008228338475
C           0.53261329488835   14.42003582868903    9.96839533628681
C           1.05419317909147   12.59341107939235    7.14318258473901
O          -0.08148016937670   12.16138632287534    7.11083855368032
C           2.04943913602856   12.80892427301663    6.12179098860943
C           3.22071195262969   13.33573911347798    6.75746867030300
C           4.22252482948127   13.55511583220317    5.73489919825439
O           5.35795798850936   13.97270292357984    5.77598089169582
N           3.58760090925085   13.14696884430641    4.54355785041355
C           4.25914731244658   13.25425952041337    3.27191285603917
C           3.83046184899002   14.50256241642083    2.50367279103614
C           2.29922580844219   12.70960717134976    4.76249133165776
C           1.43925240331554   12.26052410412815    3.72278826356255
C           0.18601677311163   11.80078829989457    3.94410170976011
C          -0.68596105548197   11.39155091281182    2.90333188297855
S          -0.29250349411002   11.54379918562098    1.17757807511944
C          -1.89553158851215   10.87863951651982    0.89221343440055
N          -2.53059566323715   10.61110093591489    1.99966029157891
N          -1.87080784203530   10.89322257652586    3.08597032795417
C          -2.42155059841815   10.71081885335639   -0.41753769616249
C          -3.65874413420587   10.20922948021491   -0.62320437986299
C          -4.32302191675241   10.08375079820027   -1.88091922531281
C          -5.50971902286360    9.37794938653094   -2.04210055095962
O          -6.17662910636546    8.66591719087336   -1.12419789062350
S          -6.18071613236356    9.40655762572196   -3.64171619420495
C          -4.86976689026451   10.41938301537362   -4.16271911434297
C          -3.96299148989622   10.67695665467836   -3.12730876543591
N          -2.97244022274036   11.49599151460348   -3.59160257695034
C          -3.24044726366500   11.78025751607782   -4.90514418517110
C          -4.42117049993820   11.11586437112075   -5.29003016839694
S          -4.83408376853250   11.45498345922267   -6.92597993552439
C          -3.41563598070395   12.49115398030784   -7.08370571975498
C          -2.67069930638721   12.54762044802408   -5.92353507532227
C          -3.14239596865101   13.19693031017993   -8.28449077574462
C          -3.95391651809967   13.22617915019279   -9.36487236902830
C          -3.70119614486833   13.98282730659431  -10.54416625088562
C          -2.59562564460762   14.71367299457799  -10.88953593330430
C          -2.70826280549289   15.37966114097545  -12.12871899309340
C          -1.75743130075174   16.22175682737513  -12.74616325593272
C          -0.44859943867024   16.47778659631519  -12.17907691829615
C           0.24684525597681   17.65374632134952  -12.16489531048405
C           1.52854886165426   17.54117512257970  -11.58987941902530
C           1.83002641720879   16.28164621886370  -11.17531039909930
S           0.51043579204129   15.19870306063112  -11.47990983307353
C           3.07759382571690   15.78680765247130  -10.53695808489761
C          -2.13484430600738   16.79086749092735  -13.95566448443430
C          -3.38138758994628   16.52869951222436  -14.58517147671926
C          -4.35737498266558   15.72573871911923  -13.94517373198503
C          -3.97633287120703   15.16571546246655  -12.73172405198050
S          -4.95356173800798   14.09814383242182  -11.76116163760543
C          -5.70550371181423   15.59038245947508  -14.45085660977990
C          -6.85946325768877   15.59754209995341  -13.71204162070605
C          -8.03023511355555   15.54237922660627  -14.48908039465337
C          -7.79502407806059   15.47732466548732  -15.82842350240824
S          -6.09331968968362   15.47782757317316  -16.14964633741438
C          -8.76781698988410   15.47492977764790  -16.94771270284677
C          -3.49883697337866   17.20689797620812  -15.80729014233037
C          -2.42495720766989   18.00389786409918  -16.12490145774730
S          -1.16586883719292   17.87952634944673  -14.90758626611433
C          -2.22460209941100   18.80533489979934  -17.26680646366346
C          -3.11163242915334   19.17146274944312  -18.24075780084711
C          -2.55029906554066   19.63678691993475  -19.54551478364182
O          -1.40925307732083   19.96825928582158  -19.76364985177392
C          -3.67711802448817   19.54328245412947  -20.48453983757380
C          -3.88923036391409   19.71373393213922  -21.81829619001432
S          -5.56082076914139   19.39070502549449  -22.22055449540578
C          -5.95348987957580   19.04325855294985  -20.57435931666664
C          -4.86184344462690   19.16058395146733  -19.77422399138443
C          -4.55033412484663   19.06507222291312  -18.35864198947728
C          -5.50329897347362   19.08784403965518  -17.36882654969879
C          -5.23363509986841   19.32509794499231  -16.00814376885037
N          -5.06543383723339   19.55330400287743  -14.89558295081186
C          -6.86742073191917   18.89620003327208  -17.65118362442197
N          -7.97626949373141   18.67393671090295  -17.85489491414978
Cl         -2.77212241694376   20.17207643780446  -23.00693591614481
H           3.58358054216814   13.79360452457869    8.89378671934621
H           1.70464962330847   12.64451413252138   10.37875190288690
H           0.17121521948357   12.33908731284249    9.52093237930640
H           1.36728213775306   15.11515211121375   10.03012286737654
H           0.02289160819352   14.39950414274655   10.92740315672979
H          -0.16224784342618   14.77639970909542    9.21188770309183
H           4.07777888190945   12.35092271767036    2.68243375052593
H           5.32705130700500   13.31656052994640    3.50053476125923
H           2.76221155702079   14.48928514279264    2.29824065864424
H           4.36802363025234   14.55791146653432    1.56104579384804
H           4.05885452732488   15.39101805626072    3.08710488591400
H           1.81686360414276   12.29712818084562    2.70921357977812
H          -0.21966819868845   11.73408889909774    4.94492593240851
H          -1.77844431597295   11.00320255391814   -1.23213003906436
H          -4.20063493960160    9.89836049930313    0.26214144576005
H          -5.73506021277478    8.71207514102781   -0.26456056404287
H          -2.22689416058834   11.89678559319361   -3.05028428064718
H          -1.77262016772983   13.13074271558846   -5.83164174575619
H          -2.22311622472951   13.76648963161423   -8.28430836072235
H          -4.88141299869960   12.66923123225590   -9.34179013761359
H          -1.72410775701127   14.77535792956392  -10.26612479802490
H          -0.15928107673376   18.58298211997583  -12.52055898914872
H           2.20544531381587   18.37102360250798  -11.49081540596073
H           3.78939274525457   16.60225291381400  -10.43413823145197
H           3.53061837912550   14.99815587101549  -11.13731608432600
H           2.86963849026215   15.37451635578181   -9.54964883230867
H          -6.87208559722753   15.69362993270138  -12.64188948981038
H          -9.01935430703398   15.56074074286453  -14.06785800877549
H          -9.76430402086168   15.24911758163982  -16.57644054125494
H          -8.49124160268805   14.74403539942382  -17.70561958802162
H          -8.78678930111714   16.45991875637376  -17.42058064780545
H          -4.32394130540148   17.06929855184025  -16.47740400628776
H          -1.20234504277661   19.12208971055203  -17.45034452146368
H          -6.95794807700720   18.76836561926191  -20.32092859623379
