70
 SCF done       -121.794536148053          0.000623416981
C          -1.91953853957690   -0.35846721109153   -2.47408659279133
N          -0.79649602392955   -0.28181021485223   -3.25187166621690
C           0.27924027999162   -0.14965356279249   -2.42317230653255
C           1.66656878125754   -0.02146836368346   -2.38933797320468
C           2.01350155464806    0.06070610917803   -1.03691950397232
N           0.86509091645950   -0.01438149346315   -0.26991942716869
C          -0.20146611066115   -0.14447594767060   -1.09639187906550
C          -1.60014219575240   -0.27806067297639   -1.14004889319808
C           3.28388453505189    0.19219906785629   -0.42367145076003
C           4.46931082169788    0.25286176972808   -1.07589913719713
C           5.70573554092172    0.37191683902182   -0.39174646132302
S           7.24522575463466    0.40851009317909   -1.25594599066066
C           7.98580671560783    0.54103521366600    0.34229108378705
N           7.10262948464474    0.55037564895546    1.29721795461967
N           5.86191436210087    0.45800386373790    0.89954672677657
C           9.39382461346569    0.61980307588846    0.50832997244096
C           9.98215009134721    0.72940394119815    1.72044685415362
C          11.38376887292628    0.79873543633728    1.92661060175863
S          12.50649889987475    0.71741899399856    0.59821326218189
C          13.87068544162665    0.83798081844904    1.66958533976854
C          13.45422474442704    0.93150427226741    2.98779902096633
C          12.05798619135936    0.91991994400762    3.13125811214833
C          11.37297612996942    1.00796920525953    4.46044951731557
C          12.33207231254502    1.52597828296530    5.54245412928526
C          12.57555303704540    2.93883956298229    5.35867217822771
N          12.78016373087048    4.05304098436842    5.20918056677463
C          13.67658334026141    0.76759278332305    5.47811833130439
C          13.43722487716155   -0.65142953442853    5.61254435400407
N          13.24973945894911   -1.77365496573623    5.71568284203213
C          14.39291825032514    1.05634147742481    4.14994718034237
C          15.20685254827417    0.83599996960762    1.17906377037789
C          15.53060090535400    0.72225880284799   -0.12513916692561
C          16.85730333476693    0.70062230981773   -0.67359132980267
C          18.04173396538661    0.85867379700380    0.06179659837776
N          19.23783678683249    0.81392882910808   -0.47981333388200
C          19.29489921473555    0.60887169126632   -1.80400750595237
N          18.23994959411925    0.45802001686917   -2.61518055678071
C          17.05686521658959    0.50605820514489   -2.05128161250840
N          20.52295272746686    0.55155690986832   -2.35284955696874
C          20.85549088370840    0.33024443179208   -3.67665298627840
C          20.21705023711196    0.07609711781354   -4.84057677904754
S          21.37903142746710   -0.13615212796752   -6.10893396845127
C          22.72614819099537    0.12143755138985   -5.03603171975656
C          22.28055033384438    0.36075964602783   -3.78282236420275
N          22.82372136229133    0.70454889658886   -2.55477111928160
C          21.74571238476454    0.70335014048991   -1.57695809927085
H          -2.88733839195169   -0.46709058376757   -2.92381583371852
H          -0.78023072257977   -0.31837204702791   -4.25588043687067
H           2.34748187424927    0.01098130535137   -3.21542373533914
H           0.85273545323100    0.02024251357190    0.73483517727501
H          -2.28853858578739   -0.31252911594285   -0.32004860725620
H           3.30540738172660    0.24266252083110    0.65708245779770
H           4.51540023212571    0.20482256239068   -2.15276870172391
H           9.99289992116743    0.58476985416772   -0.39093210180340
H           9.34766524205732    0.75943964143775    2.59448443865133
H          11.01589493958906    0.01421206135533    4.75179783116247
H          10.50462416792714    1.66810857354240    4.39429106811458
H          11.87575864888855    1.38927342068132    6.53099193108276
H          14.31791068480778    1.07910731367493    6.31257257308825
H          15.23162372427115    0.36454283302730    4.03370750259400
H          14.79836906583547    2.07370203626145    4.18208066122800
H          15.98178595548539    0.93227624683360    1.92605173621281
H          14.72869407224555    0.62612041699498   -0.84776534721508
H          18.03037393963978    1.03150886519936    1.13012190928772
H          16.21299682222888    0.38102729301637   -2.71931578164292
H          19.16969777897964   -0.00288643337618   -5.03702923181022
H          23.72364424568864    0.07752356509657   -5.41921080633950
H          23.69714859531742    0.28744956162759   -2.27399686376454
H          21.72131414569674    1.65388133440152   -1.02617310362768
H          21.82785582619857   -0.11315534412594   -0.84178375085473
