83
 SCF done       -162.117511551978          0.000905019650
C           0.74201336218141    0.75301218407371    6.21125514205837
O           0.27011274273156   -0.48161166972237    6.31974891120500
C           0.54223301156393   -1.13471037052903    5.15531873940556
C           1.20224555423495   -0.28495094565460    4.29525596439832
C           1.33430098308291    0.94993447276479    4.98119471422603
C           1.95807466601575    2.17547361986189    4.49728459091098
O           2.46167577380871    2.31906104543682    3.41537101060093
C           0.13069022193849   -2.49123043167706    5.00578722270386
C           0.29563789836222   -3.30241299370385    3.91009975632842
C          -0.30660715960754   -4.56540509042144    4.17942147903122
C          -0.83124457665547   -4.48925108979255    5.55735949698994
C          -0.56179713772964   -3.24792799585661    6.03824850991381
C          -1.40788251755391   -5.52575369563944    6.30207042104649
N          -1.84448086801494   -6.34894905565960    6.97341825008391
C          -0.41781876800897   -5.64318625819588    3.32946522603429
C          -1.17186087748604   -6.82853867018770    3.53509725466735
C          -1.01039907524626   -7.67047842400065    2.44771617947536
C          -0.11558052457663   -7.00862377348071    1.50933509224831
C           0.22103728167250   -5.79098396815728    2.01148815010091
C           1.06249879823145   -4.87053438396446    1.37675399687536
N           1.75567652280300   -4.13823556207647    0.82656742149076
C          -1.66823102187487   -8.92140124508616    2.32934090849685
N          -1.36401740074276   -9.96008781244387    1.48671151442460
C          -0.23719323236277  -10.09618302222938    0.59253992432700
C           1.09012711778074  -10.15325919770702    1.34116875921658
C          -2.23683932032561  -11.05535485895248    1.66861080174724
O          -2.15106084157011  -12.08559887442886    1.03604891114824
C          -3.15856399105812  -10.61676915703081    2.69368737405454
C          -2.78741832150187   -9.31462578435499    3.07915095078876
C          -3.76098553543647   -8.83904305383793    4.04678015239126
O          -3.88942749119127   -7.78529979388020    4.62878289273124
N          -4.64397158321267   -9.92352471453096    4.20464038688278
C          -5.77198934093930   -9.83951985249609    5.10124264543540
C          -7.07374176385720   -9.56025242328960    4.35450626634741
C          -4.30790985213800  -10.98960376605600    3.40815797898355
C          -5.02874248402448  -12.19906005932422    3.37703175252456
C          -4.64429600249313  -13.26647366348107    2.61825942993132
C          -5.34592798761712  -14.49500234965893    2.53969929619294
C          -4.78313768044640  -15.56620846677918    1.79229573879550
C          -5.43924303355842  -16.83690771056434    1.65712189528085
N          -4.96123078665113  -17.74390263143255    0.78824616308485
C          -3.81084522032583  -17.52475685693651    0.21102170283911
C          -3.05620580861637  -16.33673939266821    0.50533773292261
N          -3.58172517604156  -15.38340610905047    1.22840804854226
C          -1.75377936582195  -16.17257119573700   -0.02890621328736
N          -0.70487561551301  -16.08711392183506   -0.48074926784440
C          -3.32635302567199  -18.46282050218720   -0.73531459507007
N          -2.90771669791813  -19.20800087046518   -1.49755117216140
C          -6.61553257809475  -17.13733632001771    2.37139469281564
C          -7.20241497287466  -16.08015167004038    3.08617583245916
C          -6.58520856788294  -14.77235801090160    3.16529531791691
N          -7.31781119803593  -13.93801978338794    3.90607148880413
S          -8.61993672145399  -14.71032461193494    4.44614514917806
N          -8.33901020749927  -16.13777006233724    3.78466850757677
C          -7.16545942211688  -18.46427902430671    2.37826501340878
O          -8.49426684986016  -18.63900396785585    2.40302548541654
C          -8.73571286465420  -19.95888340745197    2.38455221820023
C          -7.57482649106589  -20.66538774119455    2.35633421388623
C          -6.52594625524112  -19.70442053438209    2.36095705176207
C          -5.11370228995491  -20.01104293146845    2.49953406344834
O          -4.24054278015355  -19.23655703554434    2.81024908468761
H           0.61175224059634    1.41232131380478    7.04802139364510
H           1.55175288171174   -0.50002453011063    3.30721828266483
H           1.93231833953957    2.99862542473632    5.23941779946424
H           0.76491891971481   -3.03262264083697    2.98551395958209
H          -0.79943139349551   -2.86756725058542    7.01393671297070
H          -1.78675984312722   -7.02049156404929    4.39167866550733
H           0.20140193436968   -7.38709263806928    0.55709859456187
H          -0.24491225455017   -9.28910668943767   -0.14428937710797
H          -0.40076202028404  -11.04063849708750    0.06421789779137
H           1.26701161843887   -9.24037526812351    1.90603490291047
H           1.90227305947893  -10.28663773319308    0.63210486600444
H           1.09169309189469  -10.99372285558860    2.03097628400263
H          -5.55402217475420   -9.01154573297300    5.78167309631960
H          -5.84649033595632  -10.76439444654845    5.67923038237367
H          -6.99312184612125   -8.62510269519571    3.80585345782568
H          -7.89148087239955   -9.47592002476273    5.06463285455207
H          -7.30088805492324  -10.35863103681265    3.65183711349179
H          -5.91684441853232  -12.28333792098863    3.98528317429929
H          -3.74208609389412  -13.21238762230493    2.02261731248519
H          -9.76272240426139  -20.26707210376361    2.38959899286030
H          -7.46189666775284  -21.72979070782799    2.34869976137679
H          -4.88772635550181  -21.08039933635310    2.32779824430650
