96
 SCF done       -187.731283669816          0.000415948877
C          -1.45382681702712    0.80670997745851   -7.20117569870336
O          -2.69877201182706    0.41800899368959   -6.99505038061799
C          -2.66777784506804   -0.73008637140026   -6.27635860616392
C          -1.35753929016515   -1.07813956631141   -6.02193832788013
C          -0.55880393918420   -0.07923935713062   -6.63117267847499
C           0.89601501280108    0.00635822201422   -6.65148053663437
O           1.52855614173245    0.89942061076106   -7.15055824663169
C          -3.88817266259934   -1.40603974922888   -5.94958761728705
C          -5.02459162668053   -1.53042886816971   -6.71695445714718
N          -5.26253543413466   -1.06167722950838   -8.03074480903795
O          -6.41362908245330   -1.09562866971326   -8.42400006055339
O          -4.31640395207896   -0.69185275641063   -8.69815604551547
C          -5.98156634545080   -2.36127992884915   -6.02165737205738
C          -5.42232393085390   -2.79415937515067   -4.86712863166435
C          -4.11958276388671   -2.19991911077642   -4.73012343387613
C          -3.33114036156109   -2.22174195277979   -3.59821780979661
C          -2.43316662504047   -1.20115962610257   -3.15471201283776
C          -2.05458983057941   -1.48064766266468   -1.87708132983838
C          -2.65152863500220   -2.71338783523140   -1.46110048821512
N          -2.35482457100215   -3.23825528869543   -0.18894522070570
O          -1.39187863091002   -2.76872685249570    0.38933234548411
O          -3.06818051013820   -4.11044150583412    0.28449507041343
C          -3.42687581103662   -3.22373284848096   -2.51288084667309
C          -3.99753010263090   -4.48350890390150   -2.76422970412525
C          -4.34327464346574   -5.45865059255151   -1.86088021270518
C          -4.89316268550232   -6.67909145208539   -2.27698344891911
N          -5.31160945556896   -7.65995164614329   -1.41977848180778
C          -5.29373327127844   -7.60317612238761    0.02452025177240
C          -6.46287068331223   -6.78884083673090    0.57052463983425
C          -5.84251358998201   -8.77483203707091   -2.10041114324056
O          -6.25243035163344   -9.77147197526764   -1.55671678073500
C          -5.72670090402221   -8.41044822566529   -3.50467366561894
C          -5.13484959924768   -7.15156092688694   -3.59129397470952
C          -5.00785805088764   -6.82425919282691   -5.00229719195247
O          -4.58328746722849   -5.83768178087051   -5.56781036234169
N          -5.52214692041779   -7.94477225906032   -5.67597505009175
C          -5.60274957633177   -7.94265811058140   -7.11800874847126
C          -4.33617305366485   -8.50793803110010   -7.75746604029878
C          -5.97044570627846   -8.90700637878234   -4.80309888335015
C          -6.62582730302753  -10.11694188258619   -5.05418701255940
C          -6.67832912430353  -10.83876618705431   -6.22353106707885
C          -7.48050300931629  -11.96984444641233   -6.43173849670348
C          -8.59778048625206  -12.42214357251346   -5.70763177491905
N          -9.45192491422686  -11.70123993956801   -4.84824050889525
O          -9.34184710972879  -10.48680666121717   -4.79117127623039
O         -10.29300811008996  -12.33947501541345   -4.24258675743786
C          -8.90910168676220  -13.74874245192626   -6.11445123450213
C          -7.99804798338022  -14.15314495436403   -7.05151522844717
C          -7.12191749781839  -13.06858898161446   -7.34750891902074
C          -6.15407791713935  -13.06480205246239   -8.33909480065771
C          -5.70278281289248  -11.95880452289814   -9.12141514618435
C          -4.89875154767329  -12.42621398835443  -10.11398997931360
C          -4.76201759655294  -13.85253122968031   -9.97882432689300
N          -3.82753988639750  -14.56127616239571  -10.76074116629487
O          -3.19030276551235  -13.91257661873737  -11.57243835905908
O          -3.67531761013034  -15.75491772969334  -10.57212182627793
C          -5.52599457994006  -14.28106319764454   -8.90194744096335
C          -5.63481028140978  -15.54798940648153   -8.26921104450360
C          -5.60855291941796  -16.76397566458796   -8.87420764690777
C          -5.70892489901870  -17.97796940534126   -8.14736359613451
O          -5.64553626666875  -18.00240018902994   -6.79891818055942
C          -5.72037802745731  -19.28268016827899   -6.40818232319948
C          -5.83567125721977  -20.11857236691297   -7.47787893582040
C          -5.83715618785695  -19.28709512248724   -8.62621483122194
C          -5.98195809383610  -19.70568708396210  -10.01137696581689
O          -6.15241144384692  -18.96823546834984  -10.94892550722279
H          -1.28459598102939    1.71162562654421   -7.75194639668545
H          -1.01687810428364   -1.94704091459263   -5.49755187539816
H           1.39269650044536   -0.84522382197922   -6.14765801908714
H          -6.96072975064318   -2.57621910382697   -6.40491914479277
H          -5.90704717960933   -3.38459511086446   -4.11569817067568
H          -2.20008371409747   -0.30772580439856   -3.69818884695652
H          -1.42084169400445   -0.89128942459218   -1.24118668878150
H          -4.18162533842577   -4.68987591403461   -3.81089904698662
H          -4.21855639497252   -5.28632344480663   -0.80344072034788
H          -4.34234399582922   -7.18489498740979    0.36094828638166
H          -5.37255223218409   -8.63756449100145    0.36936624670760
H          -6.40850517992507   -5.75603326788996    0.23519239637014
H          -6.43727306224701   -6.80200766768404    1.65593573170920
H          -7.40582515390200   -7.21725868097734    0.23934240304599
H          -5.71517228574545   -6.89758298399798   -7.42216671042080
H          -6.49506015721569   -8.49566451795265   -7.41973221589556
H          -3.48848354282832   -7.87385355259569   -7.51054681725472
H          -4.44561643196748   -8.52916504140128   -8.83808884733447
H          -4.12234612622919   -9.51489228779148   -7.40434563498488
H          -7.10650677849005  -10.51668932988796   -4.17166791933822
H          -5.98466470593009  -10.59802387538954   -7.01251455490774
H          -9.74869135374076  -14.30378714753793   -5.74035065015343
H          -8.02036357529753  -15.08267462027762   -7.58608434863017
H          -6.04712078542720  -10.94778406833033   -9.02862675164116
H          -4.42102748355652  -11.86144669130513  -10.89213461062653
H          -5.79564829579924  -15.51884657755812   -7.19796949537330
H          -5.54548116487421  -16.87426223869007   -9.94583716652128
H          -5.67951837261315  -19.47474160826382   -5.35361517152088
H          -5.91777965070261  -21.18563740121772   -7.45762555339230
H          -5.94038109740921  -20.80371128733631  -10.14108940499017
