85
 SCF done       -173.443118079906          0.000405190436
C          -0.36054151278810   -0.41722576982726    1.91069600485313
C           0.37805998840735    0.71689945132477    1.75626246967016
C           0.24434127178519    1.97500448834173    2.54404692572566
F          -0.69023745956128    1.86404561651660    3.49616747367679
F           1.38646281336010    2.32138673892219    3.16028656362090
F          -0.10385146912016    3.02565261017540    1.78174056812904
S           1.55914605646857    0.60124168366123    0.50349072087663
C           1.04788445337707   -1.01936553057697    0.17854750600555
C           1.65159801237603   -1.77836165364662   -0.82610911370525
N           2.12932552452712   -2.42449740025835   -1.64580960939470
C           0.01113305263469   -1.44140161954604    1.00434034381041
C          -0.55978000943909   -2.75723211818833    0.90100136296101
C          -1.58045955564855   -3.21275795827015    1.64783342001031
C          -2.17044572497770   -4.52967823190207    1.56571533379118
C          -3.27422173391634   -4.82230483880781    2.36820319578796
C          -3.87979799126236   -6.06503034852743    2.32607185667331
N          -5.08054259488206   -6.24238691229017    3.10473021104928
O          -5.22393593638814   -5.52765726863293    4.07295704994551
O          -5.88637964904379   -7.06307470608308    2.72173455685924
C          -3.39734518148024   -7.09489894534688    1.49894452795222
C          -2.29531037477956   -6.78339366652063    0.69085668392806
C          -1.70240922707631   -5.54290050752681    0.71544833621960
C          -3.95078440764510   -8.42677143788697    1.53127714831791
C          -4.04059415537319   -9.23432820772600    0.45299480213927
C          -4.59137137150581  -10.54388278234826    0.53973745441321
N          -4.83402745529412  -11.34946008550656   -0.54848743383036
C          -4.51025135536071  -11.06467339505126   -1.92491970445454
C          -3.02909933119297  -11.29283538488930   -2.21785605083408
C          -5.43391481273938  -12.56564041373818   -0.17913720048487
O          -5.74123870666732  -13.43039207923264   -0.97722022762604
C          -5.56004593272583  -12.48083208994236    1.25777329343943
C          -5.02163381148004  -11.23329634218721    1.66760576950174
C          -5.13119649632710  -11.15282804685016    3.10716021403643
O          -4.77231466878429  -10.31062739642544    3.90541664441431
N          -5.75560251823902  -12.35676566177898    3.47511421695294
C          -6.10441409725290  -12.62229801996508    4.84993729790944
C          -7.57687795815541  -12.33092462977967    5.12907074858592
C          -6.02387086499709  -13.15351041299903    2.38591798760144
C          -6.66612990026686  -14.41509821378139    2.47333923760686
C          -6.93000364179667  -15.17201383611626    1.37823403946308
C          -7.60500754034212  -16.42168094330232    1.40769987250502
S          -7.92191646083135  -17.25285000936691   -0.08058745635653
C          -8.73561365555898  -18.53246124144082    0.74836283805481
C          -9.35824756507086  -19.62221416884875    0.03989792450077
O          -9.97733399956732  -20.52038095792007    0.56289581694186
C          -8.74132143445320  -18.31634860476561    2.12447401163573
C          -8.10992944509452  -17.12741593642364    2.48906447419014
C          -9.41601491420471  -19.22889639490924    3.04969261879685
C         -10.58279643968696  -18.87968161316628    3.68212785151304
C         -11.25970928841949  -17.55915853799779    3.58143756989369
F         -11.36954786214085  -17.12533234474358    2.31442973428726
F         -12.49149174826275  -17.56848510397010    4.09813414708467
F         -10.58292099069408  -16.58822181817070    4.23705034521458
S         -11.26186409384161  -20.14542277557804    4.62980308185467
C          -9.94991863073248  -21.17861919262635    4.17566774065884
C          -9.87726319407635  -22.48722246262719    4.66167504603566
N          -9.80725680393853  -23.56049964571734    5.06110054260629
C          -9.03164667228791  -20.56803597798984    3.33889798556481
C          -7.85012619537357  -21.25958159051510    2.86211775646009
C          -6.73824854954530  -20.67925759233852    2.42655775909611
H          -1.13575857216262   -0.50999980569794    2.64863984916466
H          -0.10249269192855   -3.38565214516692    0.14948485101736
H          -2.02992313102847   -2.56210583541653    2.38536278443824
H          -3.69029873206231   -4.07298652339744    3.02634711356593
H          -1.88546462937150   -7.55488716985860    0.05734980237593
H          -0.85420605350257   -5.35809738676005    0.07562063620334
H          -4.31780806459514   -8.78783496592102    2.48366211904504
H          -3.74902164165228   -8.87477288266254   -0.52390721770349
H          -4.80351269901966  -10.03914956229412   -2.16626515480494
H          -5.11149239026237  -11.75290824963805   -2.52559570561759
H          -2.40412458417032  -10.65885084919184   -1.59256705293031
H          -2.82116391129220  -11.07122712520598   -3.26093888287785
H          -2.76901503607275  -12.33055499609847   -2.02458496741177
H          -5.48025064517425  -11.95603391362325    5.45218279043357
H          -5.85464597163298  -13.65771629515918    5.09846239490717
H          -7.79304228440038  -11.28716165964670    4.91564484456718
H          -7.79793644053444  -12.52441629087390    6.17502945178251
H          -8.22462328340141  -12.95124954770930    4.51346923826240
H          -6.95907073036690  -14.75994567167418    3.45363653023219
H          -6.63209890622382  -14.81244619762154    0.40204172913625
H          -9.23173746907015  -19.56784830229038   -1.05698148734323
H          -8.02645517509383  -16.79532385070623    3.50788276244624
H          -7.91362270528710  -22.33864102582093    2.91254987362566
H          -6.61243005588039  -19.61060328219189    2.39757482128315
H          -5.90040997789801  -21.26802422915364    2.09676459022614
