82
 SCF done       -143.775298981853          0.000190272619
C           0.24036142699001   11.25836757417567    6.07338532919232
S           0.12429627951047    9.67406414947146    5.44647836425685
C           1.27327768413067   10.04977473557922    4.18145060270473
C           1.70756948912217   11.35965415063890    4.28297629762858
C           1.10668819641075   12.04212621672054    5.36916425886791
C           1.42015435881490   13.46716807236796    5.69559621236197
S          -0.07238779684346   14.37961662044268    6.26258625298566
C           2.07932044493262   14.16770672209916    4.51417741137558
C           3.23268341682478   13.31278086002424    3.99990143489503
C           2.70239201991320   12.01839463799447    3.38485702533607
C           1.62377001214367    9.04432514468679    3.24185827938045
S           2.51519714250397    9.40764262126726    1.76516706774502
C           2.50933817749535    7.75302563656603    1.25537799629263
C           1.87096094444225    6.97176763201124    2.15242494738645
C           1.35173860925461    7.69085854054862    3.28063020966585
C           0.72906843013821    6.75476137899343    4.15515505577899
C           0.85083375444799    5.48094963316758    3.64877737984731
C           1.56570722728108    5.53384691357479    2.33134620895271
O           1.82500039932021    4.62197831227028    1.58266404963266
C           0.40887564053562    4.30211771989815    4.29695883722968
C           0.72574560650234    3.03636334063446    3.90886888429150
C           0.32766603560125    1.91499369829047    4.67407712264066
N          -0.41697326900838    2.02561210350130    5.77030909862375
C          -0.46057640265410    0.80231209645403    6.31959597793344
C           0.34099063977357   -0.15945190040874    5.54555589287195
C           0.29735278127623   -1.49576282184666    6.16351624720793
O           0.85387139975518   -2.51055336733113    5.80693176147865
C          -0.59290401381045   -1.27754032001219    7.31937549831048
C          -1.02325826346352    0.13318871170174    7.38306427966620
N          -1.85579267371121    0.33367458410694    8.43214446931970
C          -1.97509077035002   -0.84269903938489    9.00310229769707
C          -1.22300575544752   -1.89354963297239    8.35460728174432
C           0.80528607850100    0.52480020136795    4.45757874064043
C           1.62511250131230    0.06399108273550    3.38825213653141
S           2.86811772159858   -1.14374446677979    3.70765328899671
C           3.37758672988456   -1.14633239970137    2.05891972649616
C           2.62986261034947   -0.30477851319437    1.30625775442376
C           1.62039526300984    0.38835798833329    2.05122736949342
C           0.82045333548250    1.14906249546266    1.13691476645918
C           1.29657208166842    0.98363956501490   -0.13605641248065
C           2.50149458581332    0.08455905526623   -0.11091093616035
O           3.18353298594531   -0.24098536976562   -1.05274773894197
C           0.80131388816424    1.46459624886178   -1.37752529176516
C          -0.36687745627961    2.12301077732625   -1.55518717659742
C          -0.88257051285240    2.50509913319862   -2.82272029986490
S           0.02554947968849    2.26506185236962   -4.29217505472119
C          -1.27208740327691    2.87052315511774   -5.23622313199820
C          -2.34870626046408    3.24019735007649   -4.48596262030490
C          -2.12768107473405    3.04361558079898   -3.10135382671662
C          -3.17160066364364    3.33893883020466   -2.08314059343696
S          -3.79718746311643    1.75718599538196   -1.33518709729179
C          -4.32272822485610    4.15941845845068   -2.65837416050867
C          -4.75441409371678    3.63947529562107   -4.02531226850263
C          -3.61888626293001    3.81478302610472   -5.03031356966990
H          -0.34387968136973   11.53839260132122    6.92775321519388
H           2.07807734811957   13.50719472358841    6.57046300974598
H          -0.75874624796769   14.24190204684529    5.12957181175197
H           2.43413143431011   15.15067017072065    4.82604586884141
H           1.34593517487858   14.30920391539827    3.71602826390910
H           3.90500589327199   13.07793577798171    4.82782646511719
H           3.80119966559445   13.86379943249326    3.25023781073185
H           3.53257953039372   11.33764365652418    3.18195950043835
H           2.22429969971585   12.23572500908611    2.42366811542514
H           2.98862895380933    7.48485874322830    0.33464230546220
H           0.25648371943919    6.99829565198117    5.08990273149047
H          -0.18574034217776    4.42094244364396    5.19433099982025
H           1.34316688306577    2.86862533852316    3.03967311210543
H          -2.58850142201450   -0.95964058209226    9.87979168197737
H          -1.19269192287028   -2.92059172515965    8.66059340694510
H           4.18685796262820   -1.78100131927412    1.75462472771347
H          -0.03685735085612    1.73325195122794    1.41962121331773
H           1.41196374167539    1.22031661403563   -2.23898297106027
H          -0.99152602561336    2.34420531419975   -0.70112303608926
H          -1.17012858276987    2.91996859968829   -6.30241036397641
H          -2.74382282261921    3.85024656364545   -1.21638279495977
H          -4.04793158743771    1.13991651027240   -2.48630147436118
H          -3.99283142081922    5.19736050314546   -2.75643561052147
H          -5.16096594423320    4.13527076099492   -1.96013731168640
H          -5.63767743481996    4.18185531952367   -4.36565259934086
H          -5.02220725421742    2.58294968436230   -3.94964885151718
H          -3.46987568964220    4.88196581242333   -5.22563207925191
H          -3.86633529523045    3.33953641421540   -5.98167278450202
