124
 SCF done       -232.729942755423          0.000631175252
C         -12.89486605359356    6.98472361573143   -1.02504036172285
N         -12.00835934816165    6.05949949734981   -0.56484225535041
C         -12.34833392572351    4.81015567112964    0.06917412533049
C         -12.80337985991372    5.01767005861615    1.51119562574372
C         -10.67596627905713    6.50666715094040   -0.69990477089693
O          -9.70589044207120    5.86234350944604   -0.35131361980374
C         -10.81296591213509    7.80674945270786   -1.30863740360055
C         -12.20936735049359    8.06795036953462   -1.49548075908083
C         -12.32864799164776    9.36776042631872   -2.12118660961702
O         -13.28548901968850   10.04579744124474   -2.41079994405939
N         -10.98506816437767    9.77806824521295   -2.33894334177833
C         -10.70234454263339   11.13304721617091   -2.76743868282839
C         -11.21662940223723   11.41310013898688   -4.17702375365163
C         -10.09379906192422    8.85544543465308   -1.84471483708077
C          -8.66089108964755    8.92628844057618   -1.83303146349981
S          -7.86915267200581    8.29509591407057   -0.42771065753686
C          -6.31294045490536    8.60160830990200   -1.07807755718077
C          -6.37865071779804    9.16912726801500   -2.34647698745894
C          -7.73453633121504    9.33585677237143   -2.79090138547677
C          -7.96491341418715    9.81485117861823   -4.09832114434989
C          -6.91116531907395   10.20759893240323   -4.87239036925463
C          -7.13495397761587   10.73937402973056   -6.25996218415680
F          -8.42789610673209   10.72146134270366   -6.61551154549710
F          -6.72616254066122   12.01326807663248   -6.38632266999949
F          -6.47723856787600   10.03037084930973   -7.19220446780309
C          -5.56907170023767   10.12872511429282   -4.39249804970712
C          -4.48551683033802   10.59077485907249   -5.17363549665731
N          -3.57603723657592   10.96528288589855   -5.76139869207111
C          -5.30928968933882    9.58984298802544   -3.15586691245655
N          -5.17054494312056    8.34194822981710   -0.34353715156200
C          -4.97694816753805    8.84409567220679    0.92904421676180
O          -5.78107211714493    9.51914474602398    1.52050597453641
C          -3.57200104612461    8.45243951831841    1.36922192209603
C          -3.09874030392271    7.58996429757405    0.24463155119340
C          -4.07038648872471    7.57980512384334   -0.75879825970437
C          -3.90338640291754    6.87064501445883   -1.92824479584237
C          -2.71433787674875    6.16453126015930   -2.10971425135045
C          -1.74495915908085    6.18214938879848   -1.11419165012116
C          -1.92751101071326    6.88730523356602    0.06845544261670
C          -2.50243649171871    5.40253408065084   -3.38043968447722
C          -2.74291172064696    9.75097430378290    1.51964740285723
C          -3.38068974663319   10.60334965455401    2.61493545906726
O          -3.42990959310488   10.32346112406206    3.78482300648314
N          -3.88737857030418   11.74757598259591    2.02132363707014
C          -3.59931207866346   11.75855890896827    0.64870259792969
C          -2.85995300648938   10.62143460056444    0.31029240490409
C          -2.41162419970457   10.43920949436882   -0.97943686930317
C          -2.73504829841133   11.39083638987845   -1.93835792655258
C          -3.51148699402747   12.49911360350559   -1.62253268169315
C          -3.86988497801044   13.50251844398366   -2.67364484109918
C          -3.94194114270983   12.69187981512137   -0.31029674859776
C          -4.56210631210165   12.76442287888477    2.65951267317615
C          -4.89472567355141   12.78395164838239    3.96294225299209
C          -5.57587409290070   13.85574257629848    4.61508311631264
S          -5.36106797452608   14.03724353263601    6.31797044817471
C          -6.36092439519063   15.44447298337942    6.39573986046246
C          -6.81535349615829   15.79994574032472    5.12497631414098
C          -6.40645493826473   14.86575721539078    4.11244275926061
C          -6.89508882609273   15.02738958271657    2.80116655434505
C          -7.63045619505716   16.13298118332511    2.47764695794521
C          -8.15116118116855   16.32226811675677    1.08289308307036
F          -7.80912007152854   15.30821496635165    0.26585188635729
F          -9.49042531800027   16.40194722127109    1.03586147135302
F          -7.67743488210883   17.43637161464448    0.50089218412153
C          -7.89874937852136   17.14421091382271    3.44706426866036
C          -8.58538588323129   18.32579529831879    3.08247341006520
N          -9.14401870877804   19.29052774552600    2.81857297023940
C          -7.50598679948867   16.96895252730685    4.75335536140717
C          -6.55561717258569   16.07992054274662    7.66151142328385
N          -7.74258282200771   16.61529033312265    8.11532257422395
C          -9.06506667228671   16.33090554731635    7.60616123853376
C          -9.42522733344198   14.85768481580199    7.77904584673678
C          -7.59517496577436   17.16968766839020    9.41417957379940
O          -8.51170545274392   17.66538667498286   10.02737781025991
C          -6.19755313131679   16.97295823428848    9.73050856700333
C          -5.59781101924780   16.26683118928372    8.63492928267278
C          -4.19907562513162   16.07839674524904    8.93347202508152
O          -3.29444462782055   15.53665340527914    8.33149528344880
N          -4.04614540702570   16.68088745383825   10.20371481298120
C          -2.77707282380677   16.74745615095775   10.88381588642565
C          -2.14472983828475   18.13118026972588   10.76129221660942
C          -5.21847450473884   17.20607608130957   10.65294768553317
H         -13.95222954318834    6.79732348096400   -0.99559126106801
H         -11.44407031170157    4.19619758171037    0.04884117063579
H         -13.13255747019970    4.31591544563327   -0.51144563215992
H         -12.01317895302711    5.49339635686447    2.08688039397999
H         -13.03747693027240    4.05936125059839    1.96603564674102
H         -13.68914945519637    5.64807941517528    1.54768944734038
H          -9.62694832736238   11.30329646218899   -2.69335820913429
H         -11.21034232815444   11.81308673967451   -2.07410868813877
H         -10.80970597996449   10.71629386819602   -4.90582183399359
H         -10.93739149619980   12.42127270816985   -4.46939928728082
H         -12.29933953881384   11.32970381478477   -4.19294059651509
H          -8.96833449065376    9.85315603675135   -4.48656315446249
H          -4.29474787112697    9.50398661549151   -2.80083293598880
H          -3.59824544567498    7.94457877647148    2.33727047688631
H          -4.66937897708203    6.85198669061908   -2.68813209178430
H          -0.82881234790025    5.63093071688888   -1.26201823727513
H          -1.16598808108044    6.88187897849148    0.83303847987590
H          -1.57416601206990    4.83940052853729   -3.34870334141212
H          -2.46428370000200    6.08677584257494   -4.22744320394646
H          -3.32598661649387    4.71137090959795   -3.55039870815048
H          -1.71586465748742    9.48828659624865    1.78322718466644
H          -1.81930392015312    9.57542451912091   -1.24153435489048
H          -2.38378342023929   11.26724076487089   -2.95206691307688
H          -3.24421260255070   14.38883353346776   -2.57021915048756
H          -4.90674924129901   13.81587094895470   -2.57119156491847
H          -3.71852771476553   13.09593723946560   -3.67000820140962
H          -4.53330673664715   13.56399424361558   -0.07797724027800
H          -4.77484751465494   13.60200193876899    2.01400939614553
H          -4.58132866328355   11.96964655812867    4.59859102089739
H          -6.71545084166278   14.26615567367915    2.06063602497761
H          -7.69268737655063   17.74677685800719    5.47775396785092
H          -9.14817534496461   16.61238548108628    6.55503774662229
H          -9.74440003801732   16.95411708650321    8.19452323241989
H          -8.75832648391610   14.22549869054649    7.19615164872301
H         -10.44455223518437   14.68895167476072    7.44378249240965
H          -9.35103194850178   14.57240695920879    8.82577848017612
H          -2.13413916765906   16.00027257723505   10.41076043803219
H          -2.91947462368741   16.48517500135907   11.93642120390780
H          -1.98872501462681   18.37888349233505    9.71429728426007
H          -1.18459760548977   18.14413739647351   11.26912625378753
H          -2.78608430850820   18.88853533399497   11.20674827899215
H          -5.27109280195574   17.70718427869845   11.60172195365061
