104
 SCF done       -221.973815616140          0.000608899030
C          -8.20237347023557   -4.72932533573248  -10.30048084613214
C          -7.71501904596644   -5.09090042230919   -9.05371108049117
C          -7.65670649154443   -4.15535167616011   -7.90845828953509
O          -7.98980881181615   -3.01193734391677   -7.88584888525251
S          -6.98358156203736   -5.03037438689104   -6.49368832559531
C          -6.80439682482096   -6.57633319476150   -7.39609289268128
O          -6.37879004544425   -7.57042431623483   -6.88510656584394
C          -7.25495457543484   -6.37803895699622   -8.78604370069787
C          -7.26360557800123   -7.39001625037968   -9.76762855221059
C          -7.68631193971120   -6.98720265541942  -11.05133769816593
C          -8.15898924060406   -5.69965998171724  -11.29169089547194
C          -8.58987486957472   -5.44009467777532  -12.68461652820436
O          -9.07294613766184   -4.44146330335261  -13.11906737214159
S          -8.25647827968533   -6.90290972341104  -13.66480749821758
C          -7.55136112753691   -7.80331794985566  -12.27751492851940
O          -7.00752505348839   -8.85841760828270  -12.41341094898900
C          -6.88379734315174   -8.74188093502624   -9.44503941615342
C          -7.58388975710373   -9.82151292237498   -9.84858379502192
C          -7.27440330536239  -11.15635177257109   -9.45738805761387
C          -8.17879853962133  -12.18037311129781   -9.20668248399663
N          -9.57509437175254  -12.15813329795971   -9.38590920729042
O         -10.18044380352909  -13.19404452538326   -9.17919134213591
O         -10.10299827079922  -11.11426589004156   -9.73557360253848
C          -7.48105001436155  -13.31765506196355   -8.67291460481982
C          -6.16832013646399  -12.99696691197985   -8.55072463436983
C          -5.96345231727669  -11.66752180674973   -9.07000368362041
C          -4.73696770174030  -11.09917879394914   -9.36226773143767
C          -4.42784463315698  -10.27458893154109  -10.48104687555968
C          -3.06911360388223  -10.23198447058995  -10.62991037291573
C          -2.45184785798857  -10.95263657326652   -9.56318147918256
N          -1.06726836557171  -11.03494225496545   -9.39788820814423
O          -0.36263567392792  -10.48906491934578  -10.23066528689922
O          -0.62210371499790  -11.65787075194404   -8.43876559254591
C          -3.45211971949586  -11.46461200626961   -8.72373558633491
C          -3.28682642599566  -12.04168631443607   -7.46563290711603
C          -4.25200319441477  -12.07736310850439   -6.48052433031460
C          -4.06697116178039  -12.71209858063555   -5.25480706424214
S          -5.23497664057281  -12.55982089333077   -3.97421724900430
C          -4.33493248508208  -13.55231117168761   -2.86237842059780
C          -3.14999731023740  -14.00175553088601   -3.48527338385124
C          -2.99737539982614  -13.52323878128634   -4.81529955618144
N          -1.91998965048798  -13.82900278935349   -5.55216322736354
C          -0.99562502897726  -14.57402934195163   -4.98984756640885
O           0.11527367053548  -14.87878559957312   -5.63086292941838
C           0.28222286774747  -14.39985200657560   -6.97158668439144
C          -0.56574041338518  -15.17806029469663   -7.96545614089939
C          -1.15578138788135  -15.09508740215898   -3.65250597499628
C          -0.07893809274080  -15.94895736337156   -3.03598574113844
N           1.15751060612775  -15.22354803230508   -2.82544719874524
N          -2.20522225776575  -14.79501358956920   -2.94129165221340
C          -4.84480473723690  -13.72342029279301   -1.56066892779944
S          -6.13270010480376  -12.66857583153068   -1.05874268203366
C          -6.24999573029591  -13.38491067794896    0.49121499771244
C          -5.33374652357467  -14.42557588620908    0.63954922262922
C          -4.52153543412719  -14.62363652455769   -0.52321086098070
C          -3.57675391823567  -15.65869043904938   -0.52671785342893
C          -3.42748902947171  -16.45260454510360    0.58859426066908
C          -2.47089744368909  -17.49430223853876    0.57477923992617
N          -1.68569444195342  -18.32790566970983    0.54135985213508
C          -4.21447235606384  -16.23104046261077    1.75849338816259
C          -4.02989936480505  -17.05288155722861    2.89574484662063
N          -3.89632664793998  -17.70414263699880    3.82822129368387
C          -5.14916286656812  -15.22547185126843    1.78254779902242
C          -7.21413395765962  -12.92584260148003    1.47424363800448
C          -8.21900826366284  -13.76811824852677    1.97122972529341
C          -8.45811721993773  -15.13980525714302    1.47035925382944
O          -7.88599146210607  -15.70327321286162    0.58429497906500
S          -9.81053966666939  -15.86557896781879    2.38572573457910
C         -10.08483162131414  -14.38010033061858    3.36573154880243
O         -10.92694447797218  -14.30631425069267    4.20618444211369
C          -9.11950942144818  -13.34319675044349    2.94390508325454
C          -9.10326930221492  -12.04259387156113    3.47362822315234
C          -8.13379323497828  -11.18377027780667    2.93086136107026
C          -7.20809294515122  -11.61883624865523    1.98342112152868
C          -6.18627981456771  -10.61483997055252    1.61600955485412
O          -5.22072331480039  -10.77811711308394    0.92812959449699
S          -6.57790461360799   -9.06644038968002    2.40814448576377
C          -8.02997814696785   -9.73884594746407    3.24232705731295
O          -8.76005412385449   -9.05636462242518    3.88873843750767
C         -10.04274142562738  -11.64540141360717    4.51651449414863
C          -9.68446365153503  -11.09624921214230    5.66774571125610
H          -8.57706777523369   -3.73729300620375  -10.49685570580849
H          -6.06720933939378   -8.85614573563870   -8.74651635361100
H          -8.50456966533199   -9.69578413945422  -10.40331321524184
H          -7.95973311037595  -14.24612117925681   -8.42736309575740
H          -5.37785429408446  -13.65307580166702   -8.24240974633454
H          -5.15230203157564   -9.87782729619380  -11.16541548260532
H          -2.51840587856930   -9.74788058485539  -11.41476587559066
H          -2.30069895467916  -12.41165182169574   -7.21681343804037
H          -5.18545466136521  -11.54705361731596   -6.61869615604210
H           1.34485660905908  -14.54265953326405   -7.17500867768440
H           0.03649665443212  -13.33599731377041   -7.01746716377470
H          -0.32211393605791  -16.23731283327578   -7.93052468130849
H          -0.36741831931307  -14.80007214475766   -8.96329756139912
H          -1.62207473859103  -15.04703127043524   -7.74539147552655
H           0.13548433076019  -16.79464845116436   -3.69501670053648
H          -0.43035965077787  -16.32642862459951   -2.07277860096076
H           1.56342926295290  -14.93169115810754   -3.70687946395108
H           1.00913500583143  -14.40801880921292   -2.24197778762735
H          -2.95954248567773  -15.81522186159212   -1.39707580772464
H          -5.74241576921694  -15.05496804340791    2.66889488339368
H         -11.07708717497702  -11.89852943028867    4.32811379624204
H          -8.65562707789202  -10.89201686245855    5.91367585340145
H         -10.41552724955719  -10.84880966110851    6.41599043036933
