88
 SCF done       -183.833746115485          0.000689634767
C          -2.09256915987389   -3.39638133401727   -6.60909546030175
C          -0.86451444409584   -3.86644104528570   -6.17128014990279
C           0.39001029088529   -3.68157673428968   -6.93458501972741
O           0.52712991723247   -3.13609359187422   -7.98486730313813
S           1.73391946805658   -4.42326849190311   -6.00692255851132
C           0.66298101026960   -4.93683180969929   -4.65484083886545
O           1.08100850328611   -5.48897841166187   -3.68131825273075
C          -0.72740804944913   -4.54916094259382   -4.96545717404931
C          -1.82542896483940   -4.80176831350793   -4.11763134523052
C          -3.07593458471537   -4.35971786459784   -4.59593920067069
C          -3.18738132752966   -3.67007166243376   -5.80267715558293
C          -4.56256162143926   -3.27137603581216   -6.18067894936417
O          -4.89376894298209   -2.63953559978520   -7.13566452548254
S          -5.69596751450332   -3.90441308955697   -4.95051219293318
C          -4.38403593457769   -4.65917113796506   -3.96897952240600
O          -4.62274147420008   -5.30832581883026   -2.99786624720238
C          -1.62573822805360   -5.48855514470270   -2.86123139123293
C          -2.17022238380423   -5.11704588915311   -1.69023614879708
C          -1.92294453236092   -5.78448223584897   -0.45004297744028
S          -2.81260710515316   -5.31206484565596    0.96031737534727
C          -2.01791507845257   -6.51302441319546    1.91555181116002
C          -2.47676236808231   -6.77639629509773    3.26094090095855
O          -3.22876837943336   -6.06981594812933    3.88689592648897
C          -1.07314452413001   -7.21613021955844    1.17006618295495
C          -1.04420966597374   -6.80963454576495   -0.17337273301220
C          -0.21373211208787   -8.26597037806351    1.66731935107147
N           0.49000965525954   -8.22886550419859    2.84515021064761
C           0.76004507753998   -7.06374644494542    3.65665274367870
C           1.63070819303812   -6.05729591738272    2.91031637896405
C           1.21742242539717   -9.42526690223370    3.04404338599294
O           1.93862333674692   -9.61296647175869    4.00358121881306
C           0.89083945071369  -10.24084665394149    1.90012662735516
C           0.03075970609196   -9.47860151338046    1.05803683673153
C          -0.30032653354071  -10.28502759400368   -0.09818228576789
O          -0.96565256171232  -10.06011887377951   -1.08524740393138
N           0.36999237340407  -11.50164857505825    0.13506833208345
C           0.34092332288619  -12.56620075421474   -0.83856501450157
C           1.63109283138682  -12.63076715833397   -1.65270186624421
C           1.08068788175540  -11.48712954806346    1.31472814550068
C           1.83240988248736  -12.59283978799898    1.79352468505814
C           2.58108889909606  -12.52414762045252    2.92205418677107
C           3.36793231460455  -13.59195891794247    3.43283902206070
S           4.42929756559218  -13.29994382604306    4.76833845403131
C           4.99754904938691  -14.92719319415851    4.73932485900851
C           5.98832430263368  -15.40335065292840    5.66795502923568
O           6.41533424882679  -16.53830611484126    5.69911198469385
C           4.37526760658675  -15.66125290951702    3.72982164694266
C           3.46101224255713  -14.90579296496974    2.99990806135203
C           4.70610402473437  -17.06711655406399    3.48401930490627
C           4.46390347592070  -18.05853300501728    4.44062017881372
C           3.78913312878593  -17.77767285107061    5.72850079952994
O           3.23015261347494  -16.77361471089525    6.05555371686381
S           3.88070067512698  -19.23357881283931    6.75216599088603
C           4.68157266729344  -20.21864895846653    5.47234890053917
O           5.01766198209662  -21.34571189631352    5.66001574769233
C           4.85851092668659  -19.38021723204995    4.26368983603722
C           5.46940869253689  -19.81678377669706    3.07461524137765
C           5.70664867199567  -18.82027086948784    2.11775429947535
C           5.35088123912639  -17.48565251969807    2.31995544862800
C           5.74406625681446  -16.57179526239670    1.22802919852838
O           5.58594769876862  -15.38894667289506    1.16143571435340
S           6.53532774794695  -17.52378794277476   -0.06651812466248
C           6.35631677210863  -19.08193544028698    0.81994871439029
O           6.72183314221145  -20.12341319929940    0.36766263212807
C           5.84798469629893  -21.20350703962632    2.82373412178315
C           5.02248955112180  -22.23180430577634    2.94994992165078
H          -2.19675108816170   -2.85896878779525   -7.53836975709696
H          -0.92283135138668   -6.30830119076645   -2.88496769612424
H          -2.82493804507264   -4.25855425490083   -1.63565526981707
H          -2.10232857729392   -7.73413642602093    3.67488636853089
H          -0.38605626564817   -7.25105545835077   -0.89823222662052
H           1.28727468183714   -7.43540076069661    4.53963937790551
H          -0.17264973366400   -6.59194465809548    3.97470645681407
H           2.56701269017262   -6.52007464541252    2.60720669779768
H           1.85272838699601   -5.21461399226857    3.55851491000017
H           1.12041370415277   -5.68908826214817    2.02238734323907
H          -0.50028330485917  -12.34275037598325   -1.50087167687018
H           0.14774337988375  -13.51850432033233   -0.33612018517862
H           1.78519631266571  -11.69159208295963   -2.17805743355818
H           1.56335230125217  -13.43012725577881   -2.38540399134403
H           2.49188366390580  -12.81364601571618   -1.01322340792339
H           1.80288618931097  -13.50528929088417    1.21742702427452
H           2.61709155515059  -11.59598672329399    3.47744922812723
H           6.34029756081508  -14.63748002881161    6.38099008741607
H           2.87963706461264  -15.30731683431683    2.19027047749657
H           6.85146355408273  -21.34877071367618    2.44801404737697
H           3.99860896611701  -22.11296941078783    3.26292631921259
H           5.34361032731669  -23.23314776218717    2.72627402354523
