66
 SCF done       -133.211732428775          0.000621702239
C           1.65289438115251    0.63721600842542   -2.82259623364438
S           1.60836384896489   -0.49481248249184   -1.53122523659802
C           2.85770172361569   -1.46079562872750   -2.26264657705388
C           3.26703571141780   -0.90450307041847   -3.45329378834760
C           2.57360752884630    0.29347956272798   -3.76590282671073
S           3.01139273758236    1.08786683436911   -5.25601988507593
C           4.25168258422754   -0.09358929080906   -5.74206828472265
O           4.88409344285236    0.00041750837159   -6.74414314045939
S           4.46894545844326   -1.44163596690360   -4.58649821329274
C           3.31049191041456   -2.64561070668951   -1.62673423099229
S           4.55982457444544   -3.68515363621269   -2.29032891458369
C           4.29504160798382   -4.67683340093842   -0.85247878668619
N           3.37744180763114   -4.18304532330226   -0.06994448212990
N           2.83909594842649   -3.07554815701208   -0.49006441675453
C           5.02234356700823   -5.87423179042667   -0.62168900087387
C           4.79983767755086   -6.64314350973676    0.47268221766447
C           5.50310929376571   -7.84951947848143    0.71882007272242
N           5.29171208733948   -8.64386977971666    1.82259676193994
C           4.40920108959518   -8.36359826625589    2.92924257140549
C           5.00722184073639   -7.33197351443432    3.88252195366781
C           6.10652274951011   -9.78800481458592    1.81259236976890
O           6.08680819488771  -10.63414288518069    2.68532375444480
C           6.87063889343869   -9.67230637727167    0.59054720534034
C           6.47833562558304   -8.47250054561092   -0.05617820661815
C           7.24558400274470   -8.35504968047853   -1.27668081722671
O           7.26590620540360   -7.50781567764841   -2.14804292467733
N           8.06173447405405   -9.49812431319816   -1.28561680895802
C           8.96084093858830   -9.76817063544646   -2.38163133573836
C           8.38803674325937  -10.80266970709335   -3.34709439751748
C           7.84644832438109  -10.29513173941502   -0.18461451671701
C           8.53676923868528  -11.51024013537597    0.05298908495681
C           8.29517767992472  -12.29096393976079    1.13526890080848
C           8.99041669420582  -13.51049444042128    1.34657100067611
S           8.69054716814520  -14.53272682487569    2.74815770903682
C           9.90909778362606  -15.59975962181353    2.06465756692855
N          10.39877298283183  -15.14588739549854    0.94243554058795
N           9.89916561804114  -14.01095366389406    0.55305192196351
C          10.28957626326979  -16.81836047804693    2.69344204137016
C          11.21954829174319  -17.63747256347482    2.15692318536277
C          11.65400788649459  -18.87063385547527    2.71504324609153
S          12.86517792224352  -19.80658749762756    1.87363161437691
C          12.85266893465652  -21.03769285103875    3.06667875655500
C          11.96832848963292  -20.75340864878732    4.06325983940735
C          11.28309062346432  -19.52561827625020    3.87255058081928
S          10.13405937030304  -19.08659563863238    5.10344291570912
C          10.37685211871256  -20.52678239951902    6.13138580942918
O           9.78512642963055  -20.69746071599601    7.14830073430057
S          11.58194920722262  -21.67120829885566    5.49658984489782
H           1.00393962722670    1.48870760002971   -2.82153392605935
H           5.76397150587642   -6.15370717869458   -1.35688898986556
H           4.04961954347785   -6.32370072482375    1.18099312467184
H           4.27316853782487   -9.31353486890694    3.45391991044617
H           3.44084910397765   -8.02688339624706    2.54969660641773
H           5.95326160153429   -7.69549203123906    4.27653526908804
H           4.32765057989467   -7.16152825156545    4.71270845031619
H           5.18253884132175   -6.38681982065272    3.37369499996139
H           9.92697196632204  -10.09649495302820   -1.98894603808773
H           9.09530770940869   -8.81559108302258   -2.90197030014905
H           8.21482703978110  -11.75173714103812   -2.84505428324166
H           9.08265833372402  -10.96258236259405   -4.16692458374477
H           7.44464734232326  -10.44787298402374   -3.75493056979305
H           9.28605822185651  -11.83174116117767   -0.65525628380950
H           7.55617475162507  -12.00701121925963    1.87148634992452
H           9.79425674283267  -17.05760741087903    3.62246028987311
H          11.68084419001644  -17.34669052722614    1.22364884188494
H          13.48759668428683  -21.89455477571611    2.97482695731774
