85
 SCF done       -166.757434437996          0.000723217170
C           1.47510673474662   -7.72192086746098   11.34170485081591
S           1.44286603189956   -7.78474109863422    9.64629936970345
C           2.24264468995453   -9.34170525690684    9.61351120215197
C           2.51097563580247   -9.77252511865555   10.93015876916207
C           2.06845487333680   -8.83643179738745   11.91451573365923
C           2.26424283932473   -9.10439079282458   13.28592650781315
C           2.87939539024500  -10.26715804999472   13.66892370600533
C           3.11041028864916  -10.59387897672099   15.11009746946860
C           3.30851386144772  -11.18769331376073   12.68305814898619
C           3.13551416674065  -10.95949269764906   11.34463708253553
C           2.56760212647672  -10.00820022899878    8.43310909500271
C           2.32218102248163   -9.51582094504414    7.17381762624352
C           2.63012645394058  -10.10957031918866    5.94177654689524
C           2.94539212481851  -11.42048799684910    5.54930791954510
N           3.26402602832437  -12.56620390711682    6.28333483405146
O           3.23853070216936  -13.63301745385150    5.68788089847733
O           3.57135174288926  -12.47544540717507    7.46790862105707
C           2.85757996605873  -11.50479731057042    4.11993852929970
C           2.49931663435093  -10.29738651050705    3.60730535548548
C           2.40305651654126   -9.36086422868767    4.67874489913384
C           2.33082516382854   -7.98553755015939    4.56340500926768
C           2.92911351610437   -7.03556867563399    5.45947683225955
C           2.91698625031382   -5.80927009179276    4.87576191088278
C           2.24533655581101   -5.90756790859474    3.61092831757301
N           2.02147727639917   -4.79076100994493    2.79250244341405
O           1.44125418935812   -4.94288251070075    1.72682415423244
O           2.43327735959725   -3.71345717267604    3.19114283298094
C           1.85591772886056   -7.22638044204473    3.39659696617666
C           1.04775042696776   -7.69525248087543    2.32746209310475
C           0.20783414771125   -8.75630869743520    2.38468842477499
C          -0.59658696105945   -9.24051727627536    1.29314559565881
C          -1.60465730741672  -10.19303077661846    1.57418922695723
C          -2.42152580127577  -10.72440061738409    0.60705831744786
C          -2.21809988268450  -10.29980946099903   -0.70462396232299
C          -1.19681621465903   -9.35911127749117   -0.99247497336047
C          -0.38712342484926   -8.81454517730357   -0.02410480927823
O          -1.20699818772980   -9.15240134087795   -2.32989164507469
C          -2.22175992309689   -9.94379398761803   -2.78931571005895
N          -2.83008387519270  -10.63397587977030   -1.87412210373946
C          -2.43709590791915   -9.98034860553203   -4.20041055833146
S          -1.12745964832819   -9.54352215572653   -5.23381112665480
C          -2.08211394883948   -9.95015970155687   -6.61540187041379
N          -1.50887864557345   -9.80021814900691   -7.89556248021880
O          -2.19110136030426  -10.09499966006086   -8.85427712234959
O          -0.36767882444202   -9.38512847764373   -7.93549884508051
C          -3.34334329683967  -10.38274336118939   -6.29966439639210
C          -3.56324509557118  -10.39143806207107   -4.91012098765652
C          -4.84831535205084  -10.70238160401088   -4.33722079274701
O          -5.75304467971736  -11.35557124951795   -5.12789321299324
C          -6.86416426111069  -11.45295102727263   -4.36319819019565
C          -6.57556888608168  -10.83182703645749   -3.11402800376797
N          -5.28533649550259  -10.37564997294841   -3.16757405347794
C          -7.51306806995675  -10.75303799722180   -2.09686464989663
C          -8.73940966322262  -11.32214402049484   -2.39581455954343
C          -9.00286880255855  -11.93615770436458   -3.65503801706681
C          -8.08069372508043  -12.02521642131831   -4.67919644691406
O         -10.27751723067439  -12.38208887870315   -3.62918227033052
C         -10.74159012044924  -12.03742011730602   -2.39025945489791
N          -9.88111971161154  -11.42253388509122   -1.64411247823853
C         -12.09227904521620  -12.35760060983285   -2.00635845580954
C         -12.95387475723108  -12.97860152496930   -2.80543978892644
H           1.06069108604424   -6.87338760625816   11.85069468285121
H           1.92518307783860   -8.38534604781961   14.01645495275058
H           2.74996411730484   -9.79756521066852   15.75583536016149
H           4.17324701218114  -10.74279117805942   15.29670771403243
H           2.59624496574462  -11.51761707163127   15.37313578245504
H           3.78866881433551  -12.09799682979548   13.01011977117702
H           3.47172392772606  -11.67809639947774   10.61388062443977
H           3.06968104612275  -10.95924513621649    8.53712254740844
H           1.83496235212145   -8.55002431117050    7.11166950879113
H           3.06846152780050  -12.40543356212222    3.57440157753448
H           2.42000606126610  -10.04974260368229    2.56750370542366
H           3.43547664843991   -7.28807350032463    6.37055159810789
H           3.33447058081696   -4.89658342162431    5.25615855206454
H           1.06051242661649   -7.07057681934529    1.44468127811717
H           0.08531402599620   -9.27948398236885    3.32452357872748
H          -1.73279019812300  -10.50405794222078    2.60068356116095
H          -3.19092404102809  -11.44262611539833    0.83554689548720
H           0.37800401012005   -8.10168897736524   -0.28122089522239
H          -4.07612184097218  -10.66777213531644   -7.03296956485641
H          -7.30330075087444  -10.28644090923682   -1.15143938224675
H          -8.28966618411330  -12.49017319214952   -5.62685908588714
H         -12.34935221977106  -12.04521177333820   -1.00572932842676
H         -12.67688167899366  -13.28070773667752   -3.80156752168451
H         -13.95696610598032  -13.20104270304934   -2.48710423659126
