84
 SCF done       -175.590201869107          0.000556454485
C           0.92249511435656   -0.02246907955385    1.29119374171412
C          -0.25511431960133    0.61315149641444    1.63231630316170
C          -0.96142499709793    1.52778287250431    0.77601367660354
O          -0.60922188790637    1.86432930258994   -0.32848090516221
C          -2.28264335528575    2.09909353398550    1.36954783060020
F          -2.06105539683773    2.77021127530606    2.51335200519683
F          -2.88428232772524    2.93290926904219    0.52941101697057
F          -3.15669413876493    1.11993913141659    1.66038591696692
S          -0.77410210804734    0.15844630715079    3.22713180641121
C           0.56762633720400   -0.86763082239879    3.39739997055125
C           1.40177426206599   -0.87850445794291    2.29751141615258
C           2.61603176070722   -1.68383724697781    2.19526518330558
C           2.72959373917803   -2.88863696804016    2.87809382970805
C           3.87511534150143   -3.66011672881546    2.76532034732054
N           3.86533602214695   -4.94406155910931    3.41943945560624
O           3.11935227770320   -5.07564426939534    4.36704123994099
O           4.56932433516565   -5.81976649379911    2.96550948835344
C           4.96915681610157   -3.25180832042493    1.98349058221448
C           4.83212055532143   -2.03689822021252    1.30044370368439
C           3.68903680564938   -1.27530812175789    1.39609626480773
C           6.19993733697186   -4.00644546817139    1.93107550995022
C           6.95893734357257   -4.12965257829769    0.82309920916107
C           8.15741459783806   -4.90064816585706    0.81309219912984
N           8.87714973649230   -5.18780052046626   -0.32350134968951
C           8.61835993231979   -4.70304109730794   -1.65613123483316
C           9.09260008545876   -3.26279087904367   -1.83899854243315
C           9.97841249414067   -6.02461348453288   -0.05483880486527
O          10.75585361549792   -6.39437924905557   -0.91216771170337
C           9.90471529970724   -6.26066086167555    1.36808938274090
C           8.78766482976814   -5.53822062996636    1.87218776694442
C           8.74436011129408   -5.72846217975412    3.30318975927612
O           8.00682035034616   -5.28822542870234    4.16357650807196
N           9.83853405669215   -6.56827855961926    3.57442297215886
C          10.08203873686414   -7.06358403873101    4.90674990550603
C           9.57362820892260   -8.49247862944613    5.08158764350875
C          10.52553014275276   -6.90572874224762    2.43055160223630
C          11.66025078540935   -7.76654560386958    2.41909650242031
C          12.18651458981303   -8.24395781370819    1.27203469526470
C          13.33751215330921   -9.10374867458386    1.19932410133714
C          14.33242579054932   -9.18788972711200    2.13802164493491
S          15.59403317386214  -10.25616442205687    1.68550856768510
C          14.80976234470412  -10.62280304573611    0.21369805565021
C          13.62648658391922   -9.95258663302557    0.07438242542402
C          12.71837573601433  -10.14762829286421   -1.05853649346386
O          11.54500300280785   -9.88768796790782   -1.08630407186253
O          13.37962351416509  -10.71227462802387   -2.11302329420036
C          12.67900201813279  -10.94355290612686   -3.25108946816508
C          13.26580093987687  -11.53785831366397   -4.29760769958579
C          12.60250056329191  -11.80862184387764   -5.54147605824936
C          13.19198312765456  -12.53094856329690   -6.59124929503794
C          14.49682067427288  -13.11589090113569   -6.60648132791481
O          15.31691922946990  -13.09731915353025   -5.71420659000865
C          14.87204731162115  -13.85034483144644   -7.92955849046475
F          14.03401939678244  -14.86777521250141   -8.19698233890392
F          14.83269134205775  -13.02849029676887   -8.99350993413662
F          16.09917151015205  -14.35815066446380   -7.87201819633430
S          12.11547509130664  -12.66194273429381   -7.95353112069155
C          10.91674620379604  -11.77161089748189   -7.13083444581994
C          11.29637625477108  -11.38653417144825   -5.88269052598002
H           1.38348532357293    0.12495789177126    0.33163138290007
H           0.70078241697303   -1.40785926437183    4.31477189089542
H           1.91701814336744   -3.26687011524784    3.47954583520273
H           5.66109379330995   -1.68060555582530    0.70865567493677
H           3.63040152891603   -0.33777514739198    0.86515999946143
H           6.51356581257395   -4.50855478710262    2.83725935240381
H           6.63192890704702   -3.69677231467284   -0.11221796395331
H           7.55181666636591   -4.79486463692213   -1.88120522632888
H           9.17798865651132   -5.35911565017582   -2.32886221729543
H           8.59012138196925   -2.59414422810113   -1.14333709785184
H           8.88806124386629   -2.93209087103575   -2.85364742103135
H          10.16352337516919   -3.20132404058552   -1.66235567545718
H           9.53752108219948   -6.39516424662193    5.57979668277685
H          11.14999504040910   -6.99794726394382    5.13475039609087
H           8.50324980638573   -8.52823715753387    4.89506294810800
H           9.76124465727482   -8.82959918921785    6.09733498898455
H          10.06825451634175   -9.16934618587103    4.38818856561264
H          12.07732959982812   -8.05677102948256    3.37313305237621
H          11.71799415320558   -7.99733119435241    0.32974897937921
H          14.41110862025993   -8.64772982385422    3.06005431418792
H          15.24412367592033  -11.32592266672389   -0.46867959772007
H          11.64557120150041  -10.61854968410138   -3.22182943684843
H          14.29685648938165  -11.84554308302535   -4.21445864790477
H           9.98146476427751  -11.57410001869268   -7.61793374516338
H          10.66574609120534  -10.81220282506959   -5.23065136494025
