93
 SCF done       -192.854341925650          0.000696248569
C           2.15735544191075    0.10478962157091   -2.08532890422377
C           1.26139605992966    1.09592705888460   -2.41664876356420
C           1.09531654729184    1.82098412622993   -3.64421357680590
O           0.27233559455147    2.67493889348411   -3.86396083762489
C           2.10730127485873    1.42118043198469   -4.76012145299858
F           3.37981819839154    1.60955178700422   -4.36783000046118
F           1.99966384435150    0.12091502546689   -5.08591773746925
F           1.92697179094597    2.12459336720008   -5.87128181684330
S           0.20333317070992    1.46539422599813   -1.07884882924917
C           0.96792604315189    0.30532326544943   -0.11297669564573
C           1.99739962948531   -0.35718101906656   -0.76209902756594
C           2.81058128039136   -1.38791711673597   -0.17720677108471
S           4.05555212083083   -2.13688673952291   -1.14216852266471
C           4.56553772456023   -3.20185019972955    0.15761590295344
C           3.78629766903217   -2.95018436771862    1.26958561132074
C           2.80304442435784   -1.94145082770427    1.08717175309970
C           2.03738659596929   -1.76100155306815    2.32418380801867
O           1.12341806592088   -0.99890040778016    2.53814261521391
C           2.61559492803345   -2.73844467739524    3.33087140302048
C           3.75946182496855   -3.47118981646307    2.63700477247746
O           4.48420825959760   -4.28815025899414    3.14234081352867
C           5.60522383446428   -4.14660450701241   -0.00244839534484
C           6.35630670230457   -4.21827889703744   -1.13318422528771
C           7.39218453940623   -5.15722369830334   -1.34409299771556
N           8.19453139290528   -5.16481199975095   -2.46592365158740
C           8.09974407685958   -4.28156699934927   -3.60241481680892
C           6.97305446346060   -4.68947736070604   -4.54900265101652
C           9.14756034546674   -6.19418693178295   -2.42488195928809
O           9.96434256277018   -6.38737402007041   -3.30607918017452
C           8.89776260429532   -6.86305789529520   -1.16865898862008
C           7.81729068702133   -6.20490205350079   -0.53190438071677
C           7.54713975286414   -6.89261361117899    0.71456021287084
O           6.71448752257893   -6.71284556705760    1.57680680532227
N           8.49750435717858   -7.92883825870943    0.74935575876296
C           8.59519155720113   -8.81715026104608    1.88303218124364
C           9.73199808845669   -8.41523366430096    2.81888102578141
C           9.30965909148411   -7.92342125235615   -0.35802643192536
C          10.33927975084639   -8.87457661499072   -0.56443976571348
C          11.14931048659350   -8.82920854668214   -1.65198252185780
C          12.22320174182039   -9.70097223449849   -1.98352897300621
S          13.07451503072244   -9.21111159564111   -3.43160516228077
C          12.78974556339453  -10.85420330356653   -1.43841308292159
C          12.37880103932616  -11.58800218998426   -0.22614362216467
O          11.41601341531711  -11.31550953821012    0.47499758169715
C          13.24517907553458  -12.71530373801322    0.08547542813539
C          13.17131469043627  -13.57114938584566    1.16354381916762
N          14.17311002057341  -14.47690187662786    1.06849792259759
C          14.38515715462853  -15.57525275126721    1.97733891976079
C          13.56013160597742  -16.79332846120056    1.56678179663219
C          14.89093619727140  -14.24179992064847   -0.05452432654103
C          14.35301627801568  -13.14790439224909   -0.69737761173132
C          14.73935689398219  -12.48919620716666   -1.92678834713423
O          15.64103463295810  -12.85067386579113   -2.66551844814989
C          13.90198198752885  -11.30953337371692   -2.21135814971076
C          14.17283318008141  -10.52038409624697   -3.30429212814061
C          15.26519712000899  -10.71002852063115   -4.24523477578470
C          16.56326077998434  -10.27161807918600   -3.98364604522579
C          16.95742378048776   -9.59240179716852   -2.78824660038167
O          16.22311421447952   -9.27166571291892   -1.88021020832107
C          18.46961118893663   -9.23989378413410   -2.69733836869432
F          18.84484355632016   -8.41990356585913   -3.69594432366848
F          18.76450338158084   -8.62702577493674   -1.55460092069925
F          19.25212225087770  -10.32752076248313   -2.77935301774348
S          17.63552142221801  -10.68453507658182   -5.28203815776141
C          16.35772129290767  -11.39837781525545   -6.15036028205899
C          15.16104246763063  -11.34088947170275   -5.49445781961646
H           2.90364518715930   -0.28466263253905   -2.75413205994970
H           0.64859921069089    0.13844199434523    0.90013003511300
H           1.85098228924620   -3.44290189283609    3.66563523060308
H           2.96722694340359   -2.21679021306850    4.22348573043579
H           5.77680661895100   -4.81815406076875    0.83025153132947
H           6.16161771590737   -3.50735618903119   -1.92659324687306
H           9.05862465191851   -4.35750936219213   -4.12305770397989
H           7.96704968162014   -3.25214415717348   -3.25784695192006
H           7.14939749536628   -5.69558165992616   -4.92136700054659
H           6.93744816238952   -4.00725135148945   -5.39372706792649
H           6.00987694452368   -4.67180654866971   -4.04367782716586
H           8.73129074523944   -9.84370660938739    1.53405614867229
H           7.63961670402354   -8.73966844755303    2.40922770821990
H          10.69145278452451   -8.47847542898447    2.31118327220623
H           9.74935550961730   -9.07907036408439    3.67847302192071
H           9.58545964336544   -7.39595335232353    3.16837397511311
H          10.46753742085543   -9.65358906888429    0.16975200015729
H          10.99633489129927   -8.03253748138919   -2.37182212461775
H          12.47686437970480  -13.57305948922516    1.98013745624861
H          14.10228957302445  -15.25422100857413    2.98312741150557
H          15.44871802271516  -15.82605340352285    1.97639711108428
H          12.50025821260531  -16.55105255162617    1.56919902338018
H          13.73302872607798  -17.61036915204345    2.26121825389757
H          13.83789695322658  -17.11944942010532    0.56745945057737
H          15.73533966093713  -14.84247125406499   -0.32873798420721
H          16.54982516498982  -11.83370841348941   -7.11185483399651
H          14.24322443820395  -11.74688986984125   -5.87870541687129
