74
 SCF done       -152.713147463917          0.000679968161
C          -0.45204759997220    1.01103031043512   -0.49814303666456
S          -0.60079285536033   -0.46068481993458   -1.38267468146669
C          -0.64291320819168   -1.38644854953462    0.06990908400737
C          -0.53517221592131   -0.56737472225084    1.19259730703250
C          -0.43421700058319    0.81034181227850    0.83762933925806
C          -0.40339441364316   -1.09869309658938    2.53023550608537
O          -0.23082851570867   -2.25350688399920    2.83930252106543
C          -0.45936338243615   -0.02861230517431    3.66245574067437
F          -1.54991784870198    0.75264296544302    3.56412709999721
F          -0.48738599801045   -0.59150590035657    4.86579795240564
F           0.60539958971820    0.79359116945447    3.63320570058618
C          -0.82408099295453   -2.81379127031225    0.00268503194687
C          -0.11869993439246   -3.60604456300538   -0.91097102830799
N          -0.27932819712664   -4.90477292717516   -1.00240298942968
C          -1.15524981840725   -5.48165847610871   -0.17398669465188
N          -1.90668623253229   -4.80777180976225    0.69999078879353
C          -1.76012717368246   -3.51493093001839    0.78686982037275
C          -1.35405386153024   -6.90910952506251   -0.20006103713750
N          -0.70773428495940   -7.79721932948410   -1.02028517735961
C           0.33732860936013   -7.52300832445948   -1.97740204543672
C           1.69228033477114   -7.35554812780656   -1.29687099482973
C          -1.13640397485061   -9.11934217580935   -0.79144232686000
O          -0.70648718502203  -10.07714164434203   -1.40142298512153
C          -2.13042122236541   -8.99773073344015    0.25037150799142
C          -2.24348313728080   -7.62231583764219    0.59015394429055
C          -3.25399191378881   -7.49860831409128    1.62747480828579
O          -3.72509805489458   -6.56262069607852    2.22476603977446
N          -3.67615690789221   -8.83493161144606    1.84442500144077
C          -4.65476668241285   -9.14846729676754    2.85638485834391
C          -4.00815064509494   -9.71320715306866    4.11947095777569
C          -3.01705022847905   -9.72522777679051    1.03662299924633
C          -3.27077221884408  -11.12624429667972    1.05624308777893
C          -2.63567471841399  -12.02237144793001    0.27454214057292
C          -2.94431594582560  -13.43663786217423    0.35075412553708
N          -2.32270359089868  -14.23946174141550   -0.51550053032274
C          -2.60492924839973  -15.52634023573656   -0.45607418222972
C          -3.50263726092389  -16.04996794506855    0.46189738817637
C          -4.10165292164496  -15.13880384954122    1.34150979039054
N          -3.81587758639964  -13.84062305510714    1.27209912750960
C          -5.04314804271265  -15.57655857876835    2.35480670330842
C          -5.57908249101224  -14.72673483056527    3.24556920006807
C          -6.50668243818840  -15.08105072194972    4.27649724785633
S          -7.07469659343531  -13.84490986671488    5.37943588518679
C          -8.04054554276549  -14.95250912684084    6.22331206125591
C          -7.95190589054200  -16.22623445940103    5.69806405420266
C          -7.07158906350937  -16.28594384050360    4.58452796144494
C          -8.64515164621885  -17.40736401615487    6.17396941445770
O          -8.56553747524953  -18.51090736422160    5.69763011661995
C          -9.56008436042393  -17.17423460802096    7.41259107159988
F         -10.52195173611343  -16.26875032533199    7.15614252545998
F         -10.16164848321120  -18.29049511134532    7.80706982186235
F          -8.86270847635159  -16.70154348715405    8.46192229156908
H          -0.38752036645328    1.93879781714621   -1.03016819447859
H          -0.33681336266858    1.61268837718890    1.54438014085019
H           0.61157159705090   -3.16719906350912   -1.58085508401937
H          -2.41990867316929   -3.00344290260872    1.47324687550721
H           0.08287544924540   -6.62291143216567   -2.53814683078622
H           0.36379365274622   -8.38750937364020   -2.64689257440421
H           1.67527348374403   -6.49820438258217   -0.62926571318287
H           2.46146738684234   -7.19884235159076   -2.04749612861426
H           1.93789767134785   -8.24724768797889   -0.72517126492201
H          -5.39247190427508   -9.84663223068780    2.45041366792059
H          -5.15425193102689   -8.20432662639630    3.09196386320066
H          -3.46154243411422  -10.62863374465401    3.90401135929679
H          -4.77323968397253   -9.92687948902715    4.86075417556676
H          -3.31458600890977   -8.98705960399946    4.53557705326872
H          -4.02379754474767  -11.49464988673595    1.73810032287774
H          -1.87928317872342  -11.73340769612183   -0.44073816158341
H          -2.09087999351998  -16.15654519851608   -1.17060823767086
H          -3.72657760158906  -17.10330374231471    0.50353910498481
H          -5.28658783225613  -16.62867241768608    2.36134474721442
H          -5.28927021900850  -13.68665206317350    3.19191479008321
H          -8.62347429988873  -14.61390278797294    7.05698929932662
H          -6.88875352327876  -17.20270819946505    4.05651447519088
