90
 SCF done       -189.823575974399          0.000665411984
C          -7.02508264266464    1.19367924965468   -3.22895879330475
S          -7.83809266967780    0.48307922531289   -4.56775085450070
C          -6.96710653708356   -0.98267563919163   -4.37136133039881
C          -6.11541341029366   -0.92438873171456   -3.25401892661340
C          -6.15504800373425    0.34773295224324   -2.62419757334329
C          -5.44890811432690   -2.08265485021889   -2.72564730189055
O          -5.71471507531486   -3.24654119387587   -2.94413979777336
C          -4.28265730605954   -1.77946558800273   -1.74337749661050
F          -4.71181546338855   -1.34452577370840   -0.54856975073016
F          -3.55163490717878   -2.87339192412169   -1.52757745509884
F          -3.45427063839479   -0.83917856582219   -2.22657762685189
C          -7.02085513647308   -2.05433473323045   -5.31283562086012
C          -8.12165766498539   -2.66182713542918   -5.89804334900044
N          -9.46146435499800   -2.26140064038780   -5.80910275216814
O         -10.31878381623367   -3.06675134598427   -6.11732974303336
O          -9.69554018606830   -1.11820819794157   -5.43534710012833
C          -7.69797741938408   -3.84254622260706   -6.60048467462037
C          -6.35421562106445   -3.96977850446079   -6.45931044617765
C          -5.85955662634606   -2.85561861926252   -5.69540677146305
C          -4.53393982306731   -2.47733359431268   -5.55857279202924
C          -4.02420151147470   -1.14989816660239   -5.50855744203511
C          -2.66764495940915   -1.19007592709245   -5.67775427136802
C          -2.24971367082513   -2.55117835148423   -5.76812193357524
N          -0.89929838765329   -2.93784728399963   -5.83957979041947
O          -0.62291974486076   -4.11923571464310   -5.71728218771184
O          -0.07754873045200   -2.05590305922836   -6.02012610204563
C          -3.36765851270780   -3.38152046486359   -5.66534830904459
C          -3.39268588544431   -4.77577453725137   -5.51905838721134
C          -4.37206086566136   -5.43000088449700   -4.81213119346380
C          -4.41439458508558   -6.82329930995269   -4.66802325467858
N          -5.24511848850669   -7.48020589528179   -3.79166437878574
C          -6.21953013815371   -6.86352251955534   -2.91949545450549
C          -7.50767782580767   -6.52745039762580   -3.66568827815388
C          -5.06908641581348   -8.86649997338579   -3.83538695884576
O          -5.68017703057754   -9.65613768585284   -3.14260236011541
C          -4.04314385715803   -9.06832972125668   -4.84471439710841
C          -3.66790661768203   -7.80863506228834   -5.33766788070671
C          -2.68371135771211   -8.00638766752134   -6.38431647583219
O          -2.12012368728511   -7.23849561830277   -7.12913171832585
N          -2.50677999631220   -9.40718983879672   -6.42798643749641
C          -1.53750204369455  -10.00437241130106   -7.31487817418456
C          -0.24566867226742  -10.35748103488638   -6.58249584555396
C          -3.30531784040922  -10.05435232085391   -5.52371776257157
C          -3.35439918009371  -11.45468350223884   -5.36629826054441
C          -4.17107361601082  -12.05969708320392   -4.45879950635405
C          -4.26829540385862  -13.45544973839588   -4.28112656481561
S          -3.33977082070815  -14.60092910360633   -5.22564394065722
C          -4.05960908037494  -15.94708060264244   -4.40778921011241
C          -4.97366937681322  -15.50528032682695   -3.44541139131697
C          -5.08551357565413  -14.11167005415103   -3.37988017170895
C          -5.70219219612547  -16.39608111057183   -2.63552400346597
N          -6.28895946215045  -17.13053183300605   -1.97977302088928
C          -3.74990792256567  -17.29879815711270   -4.70365619191997
C          -2.86691645629385  -17.68277245041170   -5.65336800937607
C          -2.55189526469508  -19.03542632228383   -5.97358068445504
S          -1.38959613384726  -19.36652487115205   -7.24259892138385
C          -1.55746174184109  -21.04063472451212   -7.04307012014686
C          -2.46138762262814  -21.35990124319492   -6.04884783281604
C          -3.02339756832337  -20.20667959518365   -5.44314698170717
C          -2.83995726407924  -22.69630064260370   -5.62371133163420
O          -3.62015649316256  -22.95993715734247   -4.74648283589922
C          -2.14619144141306  -23.85048291231421   -6.40658560205427
F          -0.80741422751840  -23.79726219834756   -6.28291304861866
F          -2.53742007019979  -25.04643472425949   -5.98525658334951
F          -2.40921241295886  -23.78143385270097   -7.72440080724710
H          -7.25912022510782    2.19969810501833   -2.94233140902680
H          -5.59353166748978    0.60453357142790   -1.74526515444591
H          -8.36904111257933   -4.47777616216394   -7.14603049814019
H          -5.72982986382912   -4.70383973126824   -6.92954288924209
H          -4.62315401084461   -0.26115831281406   -5.46572910605876
H          -1.99428944490273   -0.35525275942076   -5.72693508108629
H          -2.54350468583587   -5.32782806263831   -5.90674566827729
H          -5.10163514761967   -4.84614066575406   -4.27051668399237
H          -5.78997024443543   -5.96452665910517   -2.47264626196292
H          -6.42883723269892   -7.59140717906682   -2.13125517777887
H          -7.31793588874555   -5.82593401159982   -4.47474009725026
H          -8.21781164626714   -6.07757903735875   -2.97845118323214
H          -7.94925817958051   -7.43040191795360   -4.08057009153155
H          -1.32902936183400   -9.25438382512659   -8.08279921398849
H          -1.97223223782449  -10.88711941996180   -7.79179813602940
H           0.19438302374131   -9.46014412606714   -6.15507090708511
H           0.46410583029158  -10.79253381790507   -7.28017793672061
H          -0.43142151569524  -11.06897961465752   -5.78077247630906
H          -2.72184996005450  -12.06361798167494   -5.99827231014357
H          -4.80388410957781  -11.45523064137859   -3.82007105518132
H          -5.74011201450401  -13.59337724415545   -2.70213340839258
H          -4.27738059969763  -18.03629976597542   -4.11419768649165
H          -2.35073997437714  -16.92545789759018   -6.22983516719752
H          -0.98530336253392  -21.70271622204116   -7.66256842595803
H          -3.74547282065036  -20.27688074266406   -4.65115979691914
