84
 SCF done       -172.658289099127          0.000690499466
C           0.09769204912179   -2.03909579719271    4.50551431148835
S          -0.54533488134156   -3.22085505899796    3.43624255204301
C           0.91816083249487   -3.27004448826155    2.51665335276209
C           1.87595744652773   -2.40134743079791    3.05809015823813
C           1.36806447075517   -1.70242487978316    4.19368594573243
C           3.24498492175522   -2.32076904545132    2.60938495552509
O           3.75324264120150   -2.90083106537123    1.67836383328784
C           4.16444049577698   -1.39650709611619    3.46560719092982
F           4.22190990895239   -1.78129726409884    4.75265044995685
F           5.40915912054902   -1.39998469169285    3.00037548925534
F           3.74482693996323   -0.11844810286963    3.46199786321298
C           0.96298726559380   -4.13665239047549    1.38315461582396
S          -0.06492520449894   -5.55132682744676    1.37818957064787
C           0.44874135257598   -5.98644406192450   -0.21763000915357
C           1.36931065495904   -5.05141525919967   -0.70435584140189
C           1.65466131808234   -4.01780556585810    0.19844564901135
C           1.92667956413631   -5.15938028408853   -1.99039068676968
N           2.35474752101371   -5.27171058241836   -3.04833563782067
C          -0.00986573192172   -7.13109439960545   -0.91012789090911
C          -0.90628215865309   -8.00763779308819   -0.38366099771996
C          -1.45692332417885   -9.18882764996551   -0.93026737344056
N          -1.24912617902019   -9.80252573374247   -2.14319048687546
C          -0.43501956617589   -9.36307756920788   -3.25198535573885
C          -1.10591357514217   -8.24470364898412   -4.04570076025263
C          -2.01042790511646  -10.98400308137581   -2.26468194706102
O          -1.98841453319375  -11.69184779107064   -3.25121366102680
C          -2.72758262783664  -11.09172272010315   -1.01255104836604
C          -2.36739066490283   -9.98282095831111   -0.22562857669541
C          -3.06224612850672  -10.07304938916110    1.04264087128375
O          -3.05953537681200   -9.35837676966332    2.02093065524321
N          -3.80831875438087  -11.26139321304504    0.93505059804127
C          -4.68267903945950  -11.69324815463736    2.00010421198657
C          -6.14151045199800  -11.34487828005773    1.71684702270718
C          -3.62871023901646  -11.87986607481963   -0.28028509653042
C          -4.25724359215740  -13.08488319356533   -0.64779867649984
C          -4.06757462975644  -13.67921864466788   -1.86352201776112
C          -4.69301764804988  -14.88315554713839   -2.25625208555749
C          -5.59091395742529  -15.66916183894289   -1.55727460858114
C          -5.96047318157854  -16.78515722318433   -2.35362627620160
C          -5.21667390290052  -16.64645611019242   -3.62302668039217
C          -4.47149372973354  -15.51503559738582   -3.55189340706390
C          -5.25920849446162  -17.52000200193777   -4.71587169418417
N          -5.27805784474944  -18.21727403613183   -5.62847362445054
C          -6.83656657857135  -17.79456841913386   -2.02016543142891
C          -7.22066438533851  -18.91447578637348   -2.81499187679273
C          -8.11731517762643  -19.67898409167767   -2.10753342910753
C          -8.32938082356967  -19.05130350245168   -0.81606741536047
C          -7.57148980088794  -17.92365524499057   -0.74909693785246
C          -7.51732413951506  -17.05467632057642    0.34451566742887
N          -7.49265883744640  -16.35131786022645    1.25352351458741
C          -8.75499772614295  -20.88282746607823   -2.52970983075679
S          -9.86562772194139  -21.72870845415292   -1.47063132617940
C         -10.14497986702899  -22.93193234206801   -2.63033960312233
C          -9.42892865980657  -22.71760721931695   -3.79186751026843
C          -8.63672847344978  -21.54230232110534   -3.72311001744635
C          -9.44238680229398  -23.55518399702505   -4.97733392928844
O          -8.82087631668523  -23.35730355117448   -5.98858835876418
C         -10.36130519392628  -24.80972195180485   -4.87820879126011
F          -9.99970763501453  -25.61102959336817   -3.85931070998602
F         -11.64438961603580  -24.46940046622419   -4.65661633202005
F         -10.33123464679757  -25.54022238287354   -5.98639482860613
H          -0.50863065321746   -1.66439429432155    5.30552351271177
H           1.92389504960101   -0.97713762262478    4.75699020295100
H           2.33328660806496   -3.21617001955568   -0.02297455732946
H           0.40857545143633   -7.25694467565779   -1.89732385116778
H          -1.27950768224171   -7.80530275837085    0.61483333548271
H          -0.31305229222866  -10.23912001504435   -3.89610575739172
H           0.55054904791087   -9.06281262409480   -2.88868662933797
H          -2.02534148867352   -8.61132538831015   -4.49552415471681
H          -0.44176884629098   -7.90755897632557   -4.83633695190216
H          -1.34864765559652   -7.39729387412447   -3.40842604253902
H          -4.34731367715948  -11.16542135707663    2.89716038504084
H          -4.56330315172067  -12.76822593152104    2.15885916011704
H          -6.25250667645831  -10.26890645638346    1.60678801465544
H          -6.76319026035663  -11.67650972980472    2.54341484673875
H          -6.48959952704883  -11.82495839588845    0.80510930174139
H          -4.91385983056487  -13.54994926697022    0.07259396889499
H          -3.40434871721579  -13.21359027562917   -2.58095213212461
H          -5.96731685512150  -15.48474814651224   -0.57142324070133
H          -3.81620703245101  -15.12628344036219   -4.30925802331173
H          -6.85826722895090  -19.11201467868510   -3.80343776299930
H          -8.98295990796636  -19.43109682174370   -0.05214386561971
H         -10.81995339508107  -23.73231600068285   -2.39960925038577
H          -8.01422205708149  -21.21973096765302   -4.53687821933851
