119
 SCF done       -218.198803804824          0.000728400675
C          -3.22412027865760    0.10995702692855   -0.44728357584779
S          -4.08088829815091   -1.36417419974002   -0.51071123581199
C          -1.87249349560356   -0.05967301114718   -0.52853594491937
C          -0.91277735563821    1.06411347158558   -0.49045814007452
O          -1.25704695809483    2.22761507759084   -0.40288868178572
C           0.46514642914743    0.60706401293186   -0.56171227681406
C           1.63476947243273    1.33419318980079   -0.56910306307905
N           2.67986341268608    0.47489221497345   -0.62778102652046
C           4.06529772211030    0.85936886638482   -0.72681829070443
C           4.47586858651533    1.05687627803040   -2.18463072903050
C           2.21857966422900   -0.79621164552584   -0.66624447648813
C           0.84111298803880   -0.76739198637146   -0.62349892444008
C          -0.09363448391543   -1.87625932194906   -0.64441995873362
O           0.24412003778190   -3.05141944510037   -0.64046746788572
C          -1.49863562694392   -1.43440341695739   -0.64937514438946
C          -2.60040903427019   -2.26832811283350   -0.67263199531683
C          -2.68060710975578   -3.69475086329867   -0.80646777497140
S          -3.79408853726270   -4.56263718258738    0.20461008744709
C          -3.38181915357370   -6.07656847959201   -0.53989287345803
C          -2.41548021924120   -5.89253387987413   -1.51876407755634
C          -2.03707403934934   -4.54659517664556   -1.68129489868851
C          -1.11813925257395   -4.16281915973154   -2.79587787416213
N          -1.44702771384798   -2.82274630859021   -3.32819340602910
O          -2.60979169400275   -2.58223382159123   -3.54809373359731
O          -0.52868718965487   -2.06908814419436   -3.53941251008214
C          -1.29169580369665   -5.17050192423377   -3.93790073517274
C          -0.91523904606124   -6.56267661318211   -3.44802914485081
C          -1.77875096551663   -7.01651668952155   -2.26591481141991
N          -0.92789435836182   -7.84222598456873   -1.31890201767604
O          -1.26602160392330   -7.90064263251445   -0.16730413330221
O           0.01936087557706   -8.40360452388370   -1.80284947474915
C          -3.98033222353444   -7.30540295530442   -0.18579028801316
C          -4.79557744100414   -7.52421406210104    0.87696503688854
C          -5.28058470589440   -8.82555595185588    1.14414337178660
N          -6.06024538148113   -9.15925515964947    2.22279468985040
C          -6.59299372054707   -8.25236442870587    3.20992917578948
C          -7.78936411154999   -7.46960481177218    2.67446700997674
C          -6.33844641899941  -10.53689401159022    2.26721107509569
O          -7.00710709906909  -11.05408400206670    3.14045669260943
C          -5.66415569041446  -11.07709332316123    1.10672302964501
C          -5.03418796696058  -10.00551180421065    0.43312939999339
C          -4.35250287826729  -10.54628678149022   -0.72136817898703
O          -3.68702262083363  -10.01260689969777   -1.59646684122188
N          -4.60457522317816  -11.91790720141366   -0.66779998769716
C          -4.10903308672034  -12.81477188519816   -1.68509226679513
C          -5.19602794345012  -13.19603956839737   -2.68667540755140
C          -5.38274729651347  -12.26253373767985    0.41869156904565
C          -5.74818095011497  -13.58592756930599    0.73430440005644
C          -6.48997047189097  -13.90028947380587    1.83695892139754
C          -6.83910309799167  -15.21544703501470    2.21621548305473
C          -6.57022936356547  -16.41693482098408    1.58722232586730
C          -7.07573466269537  -17.48403464876462    2.37696760431288
C          -7.71348660971896  -16.85927348471107    3.55408528646387
C          -7.57114492655946  -15.51467690637416    3.44099355967660
C          -8.39625007985368  -17.50568473101102    4.59155235677114
N          -8.98850356081426  -17.98327474374868    5.45228051474991
C          -6.97113925427958  -18.83354171956464    2.12822318304257
C          -7.35983929486833  -19.89959299906326    2.99112374323926
C          -7.05925899140675  -21.09559880544227    2.38908858900446
C          -6.49461740704522  -20.81292984462375    1.07880690047638
C          -6.41282931412088  -19.46465108613589    0.91902443280518
C          -5.90830060238031  -18.81074495617524   -0.20761316874337
N          -5.48750051650326  -18.29023533950109   -1.14289206348848
C          -7.27364792444176  -22.41770894087516    2.88447408268997
S          -7.56439958073877  -23.69877367246229    1.73091100400530
C          -7.34653354622337  -22.89372872840592    4.18284870906284
C          -6.98007912658783  -22.14248678445374    5.40232339280796
O          -6.47800516224052  -21.03367867578685    5.40375547695348
C          -7.23263197952071  -22.90364053666826    6.61818472049498
C          -7.10813897545063  -22.49388669927631    7.92713478862569
N          -7.42994702962101  -23.52951260628783    8.73854309394622
C          -7.49100613000789  -23.46255410308385   10.17692807527827
C          -8.84186835157966  -22.92414559373062   10.64403284792107
C          -7.76401192122749  -24.60531885840364    7.98787620520411
C          -7.65469598107393  -24.26492037829767    6.65654482220433
C          -7.87454964681940  -25.06622685641163    5.46524634138493
O          -8.19016968142111  -26.24209131315581    5.46274277700233
C          -7.68082835255912  -24.28278369682128    4.22564181566486
C          -7.82514653882304  -24.82895319854062    2.98124045020698
H          -3.74502082314394    1.04277928106278   -0.35433973963236
H           1.77156138699187    2.39667131248515   -0.53072770203218
H           4.67609910149832    0.07741275264862   -0.26827604540028
H           4.20902671319058    1.78803257591755   -0.16837410053595
H           4.33074050041031    0.13733427967093   -2.74636327955229
H           5.52308861921609    1.33997375626061   -2.24062337301818
H           3.87667219544285    1.83920903685272   -2.64394749150350
H           2.87702146880490   -1.64053758148043   -0.71777243493075
H          -0.07683734607188   -4.12185374261132   -2.45259238830782
H          -0.64880041940270   -4.89600026567519   -4.77582869152638
H          -2.33136479746848   -5.14797044958543   -4.27362870120561
H           0.13296130970554   -6.55514159813594   -3.14002734249760
H          -1.00488732414567   -7.27533140932224   -4.26749868619438
H          -2.54685278110333   -7.73054460229665   -2.59064927189583
H          -3.74489467075116   -8.14739843219808   -0.82103855988833
H          -5.04612204862149   -6.71670513763982    1.54981342082236
H          -5.80350633639140   -7.57438251964666    3.54601514791547
H          -6.90754224615671   -8.87397588848998    4.05289376203951
H          -7.50956600991451   -6.87246702693914    1.80943098204199
H          -8.17151160437483   -6.80860839619301    3.44728488365891
H          -8.58065989439005   -8.15510746078848    2.38113558603072
H          -3.68696660591407  -13.70587029286555   -1.21299202513024
H          -3.30691927414941  -12.27664349024049   -2.19779970358866
H          -6.02495190331704  -13.69669572639188   -2.19172861579362
H          -4.78423512210738  -13.86486901451032   -3.43698860542899
H          -5.57540136668557  -12.30574440204689   -3.18269866483205
H          -5.40451436780462  -14.37574765515499    0.08268362253600
H          -6.82716793575506  -13.10322682438328    2.48639456094569
H          -6.04596297726537  -16.55101467763236    0.66214309015833
H          -7.92697388398446  -14.76856577371326    4.12745243718016
H          -7.79560320981578  -19.76729914880994    3.95965768547825
H          -6.17945107968405  -21.56318719028537    0.37635987216989
H          -6.81577696797322  -21.53646882578564    8.31021186569644
H          -6.68750017354990  -22.81011756175208   10.52929809995941
H          -7.32800532692846  -24.46612650903717   10.57785290252851
H          -9.01064135827038  -21.92756368096070   10.24357756451564
H          -8.86649450715667  -22.87364463367444   11.72886059470149
H          -9.64597905217020  -23.57313838967780   10.30562438748146
H          -8.05104001463653  -25.54025969119214    8.42689957917169
H          -8.07279399618772  -25.84776721927901    2.75553493546128
