123
 SCF done       -228.260641354680          0.000807186519
C          -3.13616143712952    2.23992988704263    3.33627486272137
S          -3.94321730167688    1.42468765093203    4.59609811093612
C          -3.02443201381411    1.49358317816344    2.18976741620787
C          -2.31202585802382    1.94077260667270    0.97347859240245
O          -1.83133968732417    3.05160780471472    0.85410543506837
C          -2.21379181178833    0.87880517073557   -0.01672861056071
C          -1.51744202625112    0.84277317910230   -1.20505408868575
N          -1.73079913729334   -0.35457036556346   -1.79912003381341
C          -1.08520352815938   -0.80044452947421   -3.00906124694578
C           0.33435348321282   -1.28312909410456   -2.72099015810069
C          -2.55713298926627   -1.09853706137582   -1.03217826279438
C          -2.88692210696545   -0.37453772465435    0.09504065971174
C          -3.74260661678277   -0.73764850865669    1.21046569095438
O          -4.50918460313098   -1.68684206476957    1.21261624353294
C          -3.59536996059097    0.20330171075170    2.33960546347529
C          -4.08629204168760   -0.01041278085858    3.62518838638924
C          -4.60410740328546   -1.24458613143003    4.11367658701945
C          -5.75297680884993   -1.46833420199155    4.84906552635065
N          -6.56406497958247   -0.52228486092753    5.48495974991559
O          -7.69753361743834   -0.85076812054009    5.78464275576328
O          -6.08803283370539    0.58242411371166    5.72235699243424
C          -6.10258178690658   -2.86539701470593    4.76665145641378
C          -5.16497088015238   -3.50764781670649    4.03402002477011
C          -4.12597946891081   -2.57631913591967    3.67816076286922
C          -2.86654383970860   -2.82282859025757    3.17024133880475
C          -1.82981801568077   -1.82984392691367    3.00762949666936
C          -1.02936646102969   -2.19396611354533    1.97719959692071
C          -1.47599588741245   -3.46554069085697    1.48489292038677
N          -0.89618145527442   -4.09704627719432    0.38878525968938
O          -1.20932727223714   -5.25039119687103    0.11836746899907
O          -0.10766038577329   -3.44185234716764   -0.28621411291742
C          -2.50287179616227   -3.95157276077490    2.30228298893243
C          -3.04609527677517   -5.25390120213191    2.24505234453303
C          -3.43551624351354   -5.93012883003134    3.36582911750637
C          -4.01725466696101   -7.20670093884657    3.50026469350564
N          -4.45646312353304   -8.10552597451471    2.55737580901701
C          -4.31633840090010   -8.04342763816214    1.12150371653803
C          -2.91736433875670   -8.44393367916049    0.66144130809733
C          -5.08260466610692   -9.22057119082731    3.15105311952998
O          -5.56371541831260  -10.13484442401221    2.51336414198741
C          -5.01088653858020   -8.96875152216670    4.57517089777442
C          -4.35011121955033   -7.74102102817834    4.75163180385752
C          -4.28604937786767   -7.45118896615130    6.16937124291363
O          -3.81885356684524   -6.51876109311802    6.78719376741528
N          -4.92270730275351   -8.55499864459702    6.76795381389934
C          -5.08653200557320   -8.63861171950121    8.19989440287465
C          -6.46816042424707   -8.15972402815229    8.63845498282731
C          -5.37451670218177   -9.45966135344560    5.83928159635954
C          -6.07832055414420  -10.63221961516640    6.18821191039669
C          -6.52707917657859  -11.51836055446396    5.25894945482869
C          -7.29985946107588  -12.68758061231411    5.48485440141213
S          -8.10768392819315  -13.26708272414674    4.05857019610343
C          -7.56331606025160  -13.50856747879592    6.58591407829387
C          -6.86726184407715  -13.44389430193013    7.88624038068320
O          -6.08167430794318  -12.56962614846612    8.21955657406410
C          -7.19008983552926  -14.55358934415464    8.76519976901575
C          -6.69655867047035  -14.85406256011431   10.01595444768861
N          -7.30516736357104  -15.97992804112216   10.46017663818827
C          -7.09872794161563  -16.57391829771684   11.75708123647541
C          -7.98964252056616  -15.91619868075285   12.80875258246021
C          -8.19527155273367  -16.40873517684684    9.53576878122125
C          -8.15136820048105  -15.55154095369968    8.45651353908459
C          -8.92374670490677  -15.56197061175070    7.23178434622300
O          -9.80831146514285  -16.38294661020483    7.03082752198793
C          -8.52380638464810  -14.51676577995182    6.27622158733614
C          -8.95481062765413  -14.48182045562375    4.94393135767528
C         -10.02091472670606  -15.20217080286779    4.30692206345198
S         -11.38691154788550  -15.75148148953878    5.23595926783289
C         -10.22963094991820  -15.43214780849700    2.94664039930018
C          -9.26860030468552  -15.17884497448504    1.86806889016058
O          -8.18540366753673  -14.62979418909270    2.02602300773959
C          -9.72014053836998  -15.64424584443237    0.56989643401995
C          -9.07212768505925  -15.57148818364290   -0.64587855142300
N          -9.88579918022447  -16.07780804837817   -1.59966414241726
C          -9.54442448995762  -16.23380878498614   -2.99124451064863
C          -8.96674242470193  -17.62120369463167   -3.26296812758729
C         -11.04760360092284  -16.48803857831035   -1.03362980834133
C         -10.99226016535496  -16.23483314309346    0.31801836653185
C         -11.97646372180234  -16.47059292287910    1.36307674807430
O         -13.07341155460458  -16.96694053955750    1.18312645887943
C         -11.48982976733542  -16.04797954935698    2.68985491011530
C         -12.21979506276488  -16.22535185612002    3.83439438046317
H          -2.79057546800881    3.24719372214218    3.46596633217029
H          -0.89567708963581    1.59572982632422   -1.64713314332618
H          -1.06711690358822    0.03006247092097   -3.72105966868671
H          -1.67763597234666   -1.61384988712549   -3.43357764427826
H           0.93835237698044   -0.47016102137273   -2.32570333909237
H           0.79338897029941   -1.64561032205364   -3.63603729451297
H           0.31888015090644   -2.08947266203277   -1.99152791614917
H          -2.85708395180623   -2.08815784348982   -1.31466053985722
H          -6.98330035396394   -3.27779257931079    5.22051211665315
H          -5.16867925210902   -4.55113672215647    3.79983615413531
H          -1.71280221111586   -0.96081594492385    3.62341100246002
H          -0.18354403693832   -1.66559480333812    1.58069183159436
H          -3.00770846770361   -5.73978494061234    1.28193000663449
H          -3.26288264430719   -5.45620081131809    4.32555270411206
H          -4.57962709321444   -7.04237713362112    0.77187969843715
H          -5.04476779099767   -8.75706754309118    0.72426069525008
H          -2.15731730319582   -7.77354689494137    1.05372229754527
H          -2.86885822311085   -8.41434744204278   -0.42315142327528
H          -2.69612272831985   -9.45569438243674    0.99285985514842
H          -4.32025022472485   -7.98895399296474    8.63189478096038
H          -4.91060742540431   -9.66639123338290    8.52584306008223
H          -6.61956232285688   -7.12752923307703    8.33187871318268
H          -6.54910861786814   -8.21635032645381    9.72022805251935
H          -7.24966668255741   -8.77361119710559    8.19670947230288
H          -6.24982351064212  -10.82179793148428    7.23455627184395
H          -6.35955901620490  -11.29526032086248    4.21065476821685
H          -5.95322442644397  -14.34197402447406   10.59401219460437
H          -6.04731053351968  -16.45521265121268   12.03168983413004
H          -7.32439921620669  -17.64091380470697   11.68943479356368
H          -7.76967681920149  -14.85390818582969   12.88124000985191
H          -7.81957124356584  -16.37478683532119   13.77847621718225
H          -9.03753002811266  -16.03523780403718   12.54468609180316
H          -8.79399939803268  -17.28564649025802    9.68191848493762
H          -8.09787098294993  -15.18484987518167   -0.87055256116893
H          -8.81398175044736  -15.46555155884225   -3.25627548300119
H         -10.44600355194943  -16.08105209570125   -3.59041026628459
H          -8.06697724207392  -17.77875178093975   -2.67316686063766
H          -8.71615993740665  -17.71931318431561   -4.31531327278555
H          -9.68979690393804  -18.39045421718615   -3.00278122606965
H         -11.84067257217601  -16.92028642637124   -1.61071825827691
H         -13.19554381388709  -16.66676531151554    3.89523483682106
