112
 SCF done       -219.776877957678          0.000946921763
C           3.32351552028729   -1.42928800756148    4.83361001413347
S           2.75344563441456   -2.80521053735310    5.68364204055176
C           2.35244207438556   -0.83022103025258    4.08567563269141
C           2.53031070741287    0.37604468470259    3.25237665980345
O           3.59099579874693    0.95667623844545    3.12777467961182
C           1.28775546947674    0.77389322609329    2.59858253244477
C           1.05492182283153    1.84376647936984    1.76338392864705
N          -0.24299623789403    1.82166524496157    1.37593400542777
C          -0.88009773651405    2.81817442259846    0.55174751267549
C          -1.42449315412029    3.96570612668484    1.39970121244830
C          -0.86719464441796    0.76639882897385    1.94678586334957
C           0.04529314233925    0.07755393693872    2.71727419660693
C          -0.13450911106738   -1.12282340739814    3.51393498361317
O          -1.17070743858418   -1.76133912132060    3.61510183495096
C           1.10498960284526   -1.51319957639325    4.19417189339086
C           1.16681385750290   -2.60943515776436    5.02112521960313
C           0.03114544264051   -3.43678189062409    5.36083341032554
C          -0.73057655288932   -3.29218045207642    6.49316581488013
N          -0.54214798963471   -2.32319710976215    7.49590118586827
O          -1.34253756109401   -2.29433018207632    8.41056575433867
O           0.41103131761160   -1.56794491416526    7.38723953528403
C          -1.83218484533081   -4.22888111627396    6.46214207231807
C          -1.71602623065195   -4.97543068619180    5.34271943399684
C          -0.54547985612605   -4.55546675284008    4.60368890267608
C          -0.05503812491448   -5.06998091874804    3.42485448582982
C           0.87084381586050   -4.43143588593401    2.54179959962949
C           0.84927251370534   -5.07862237313314    1.34774856707549
C          -0.03623771764695   -6.20390272748155    1.42259662657964
N          -0.18382434524320   -7.02613331715461    0.29865516727339
O          -1.11376950368196   -7.82583849997222    0.23450978661506
O           0.62705251830773   -6.88593046770293   -0.60200215510724
C          -0.55031048224119   -6.28507037813046    2.72968333392365
C          -1.17850363304306   -7.32249569082290    3.43043469941127
C          -1.80908927555041   -8.42069852076285    2.89460288472818
C          -2.38899036802657   -9.44704492343025    3.63078870683783
S          -2.42053332516913   -9.56198553269907    5.38201623653431
C          -3.35406517255780  -11.04543121920842    5.39141392461134
C          -3.61554677597461  -11.45374834665838    4.06552910865918
C          -3.06866060507218  -10.55679548020052    3.11115955719857
N          -3.34260737072533  -11.01567522800746    1.87115551208202
C          -4.04599067128028  -12.19267482168925    1.99950142970431
C          -4.47874649140426  -12.92121130000623    0.88057468282077
N          -4.83841084520060  -13.51803519595241   -0.02988105817071
C          -4.23456090451241  -12.49373476901922    3.33664593535310
C          -3.71649485578366  -11.61072023008659    6.61430607261923
C          -4.49192856545038  -12.74219484757243    6.70862608858376
C          -4.82529025337260  -13.43869762501729    7.87823919862452
C          -5.00805319450709  -14.83017515939936    7.92151348964027
N          -5.11476126172984  -15.73014320516317    6.85047792516722
O          -5.17628954649203  -16.91676240934729    7.12298890362462
O          -5.15625482251063  -15.29631402681865    5.70536888789285
C          -4.93020725709678  -15.27234968091686    9.27958780117378
C          -4.79952936847117  -14.18873373526773   10.08690252404609
C          -4.88800501614350  -12.99327934399517    9.28777611297910
C          -5.23177691814593  -11.73280931342144    9.72400904828876
C          -5.32384590661072  -10.53476404864837    8.92904388112034
C          -5.29011932446654   -9.45696441997118    9.74896774266923
C          -5.26707237143706   -9.91424208222069   11.11352488587569
N          -5.29519390580016   -9.02510509016313   12.20241053398187
O          -5.31728481998421   -9.48098723393355   13.33477806352202
O          -5.28386899419274   -7.83380230782866   11.94590045724856
C          -5.36103760338301  -11.29917982184142   11.13584089988110
C          -5.69330344004131  -12.08268516795006   12.27027003835752
C          -6.49823536728064  -13.17559961566030   12.19596267067842
C          -6.91575248662643  -13.95534919265113   13.29909136743579
S          -6.50548835458512  -13.55538084071805   14.95146436271616
C          -7.67392633049085  -15.12045171515675   13.24031428384531
C          -8.15776710797745  -15.75228888438181   11.99657011419166
O          -7.93722720748266  -15.31725745724912   10.87685678960148
C          -8.92073814720791  -16.96083442662713   12.25420713814488
C          -9.52987254125300  -17.80672304666933   11.35083643272181
N         -10.13560422540808  -18.80526113452935   12.03240269677529
C         -10.82420551675038  -19.92118228956121   11.43301599347093
C          -9.86027329145408  -21.07066510190145   11.14708410502256
C          -9.92665930452028  -18.63962100946614   13.36003914729112
C          -9.17676591114564  -17.49958984372171   13.55069961438763
C          -8.69674054977820  -16.89860098696113   14.78429699000938
O          -8.89796475968342  -17.33850349772836   15.89992708083538
C          -7.91730589409394  -15.66631572645147   14.53075887312279
C          -7.34706118626515  -14.91964583562870   15.52860147309574
H           4.34656609093016   -1.12206988711474    4.92872026311191
H           1.73680605779226    2.60008381060309    1.42859761158618
H          -1.69418096829400    2.34225117403603   -0.00092989640060
H          -0.14589139407021    3.19734800855331   -0.16360322202822
H          -2.15816197321762    3.59578288432058    2.11177530142589
H          -1.89954401270424    4.70525702928217    0.76156034520330
H          -0.61886226846784    4.44492933790016    1.95075535455161
H          -1.90500086300438    0.55681585998432    1.77836695781018
H          -2.59743992802642   -4.26536054189812    7.21327377661803
H          -2.42613272016028   -5.70192678978041    5.00208046151300
H           1.42186981105204   -3.54041349720528    2.75854417452699
H           1.39057152956426   -4.81953571862203    0.45700920400570
H          -1.13965948466391   -7.25513833734290    4.50994185427460
H          -1.89376175574324   -8.50229772758776    1.81997090136377
H          -3.07041067371338  -10.58903189236721    0.99907750691946
H          -4.74056207652907  -13.36509765160532    3.70195410966677
H          -3.32258348986315  -11.14013409117504    7.50474604734308
H          -4.76011536451044  -13.23877612262402    5.78907489113141
H          -4.95666123633788  -16.30505332098857    9.56946360261637
H          -4.67396646718983  -14.21256360395583   11.14978791963550
H          -5.40239825293390  -10.51043782900030    7.86149800379980
H          -5.30768700004878   -8.41895157762798    9.47619887434793
H          -5.40278033259819  -11.69454475379887   13.23888900680891
H          -6.89641885963152  -13.49947943191890   11.24237362671967
H          -9.56402440614405  -17.74129666732746   10.28138081904684
H         -11.28894702578913  -19.58314970982627   10.50349043045276
H         -11.60961754789431  -20.25203341017883   12.11717900624818
H          -9.07914767485457  -20.74919672186675   10.46250804992317
H         -10.39746200370987  -21.90101750668670   10.69801128248844
H          -9.39443049927064  -21.41326314390536   12.06790053503824
H         -10.31863075872818  -19.32111483650164   14.08872025245254
H          -7.39407110843165  -15.12863662943218   16.57993590741420
