111
 SCF done       -204.398530689455          0.000710733224
C          -0.64333837455830    2.72715242562537   -0.75550333517726
C           0.56509835329450    2.06442894298273   -0.60814354929377
C           0.60526269672995    0.98073773761453    0.24700921631378
C          -0.54077204121857    0.57612614396570    0.94142508761992
C          -0.18324364288776   -0.60897058532986    1.76313994186921
O          -0.87151118723755   -1.26007124928158    2.50706520310618
N           1.16000904501028   -0.83751611125212    1.51217860382478
C           1.71185434775129    0.06658710552728    0.61261692928707
O           2.86006302640744    0.06376809201391    0.24878735656015
C           1.90435982719574   -1.93519906386616    2.09179457724390
C           1.83937883172005   -3.17430724367520    1.20596773832679
C          -1.73910390241421    1.23246509026053    0.80531314679750
C          -1.80156997018280    2.33699423399667   -0.06525455120434
C          -3.01431962724370    3.08396976759401   -0.29857952174330
C          -4.19122933609100    2.89204705837056    0.33648242285400
C          -5.42151041081328    3.58548688770149    0.10640952773708
C          -5.67146694951144    4.56750757976894   -0.88451726177953
C          -6.95857890201284    5.22100268432404   -1.01239445686930
N          -7.10993341674688    6.23352104172576   -1.88490602255250
C          -6.10781607144353    6.58097234677867   -2.65364550036504
C          -4.86713309013402    5.86848100485990   -2.59858867656115
N          -4.68468308811246    4.90893118655420   -1.72663545549491
C          -3.80979866840540    6.19408241127899   -3.48455542143321
N          -2.96426829060812    6.47266479033082   -4.20527082312152
C          -6.26846468309222    7.66122812702826   -3.55696737123304
N          -6.36467113061849    8.52286298788829   -4.30519992578320
C          -8.04890124559249    4.88319341613922   -0.18845584001621
C          -7.81182639398987    3.88859446202671    0.77783968461721
C          -6.52127167373186    3.26771685965265    0.93202323897369
N          -6.52693386283445    2.36981306737783    1.92296133856461
S          -7.99311401847243    2.31244131437259    2.56416482869675
N          -8.71130807184991    3.38698012420999    1.62661083560534
C          -9.32283802134254    5.54913950779993   -0.15899598110866
N         -10.11445928416789    5.90269267437714   -1.21144547355308
C          -9.92873645637596    5.56434381648431   -2.60132211994950
C          -9.99203546847677    4.05761233052337   -2.82999612591759
C         -11.31758554764408    6.50761468966899   -0.77373566141533
O         -12.18456853356905    6.88671490040431   -1.52934333788763
C         -11.20071025891482    6.53676332002536    0.66707768622513
C          -9.96854140161861    5.93100328339310    1.01251445553175
C          -9.79159311374517    6.04747424682105    2.44516346613283
O          -8.89979390952313    5.70998601741050    3.19471198238461
N         -10.96227345082842    6.70059312786197    2.87791871464726
C         -11.15944824402815    7.03427280806979    4.26747733902955
C         -10.82404091348816    8.49631272539026    4.55391578438379
C         -11.80919840473771    6.99590597221924    1.83400300075885
C         -13.06463665893491    7.62907396571992    1.99415871840493
C         -13.96612333026185    7.76639386312806    0.98610628090583
C         -15.22333072093554    8.38987262922418    1.14890116361193
S         -15.66794866857532    9.27631548476492    2.60381994975088
C         -17.24959544571421    9.68629506687747    1.98373055285839
C         -17.39938521946035    9.14868402678867    0.72029584138985
C         -16.27723685135304    8.42932527392679    0.25497478626149
C         -16.55367259728247    7.84369332197017   -1.06252415843433
O         -15.86646598948241    7.09233738990676   -1.70300521946849
C         -17.94107884537098    8.34717231607772   -1.45339364027078
C         -18.48257996614003    9.12719352568922   -0.26339635260588
O         -19.58351537412306    9.61104181123200   -0.16302441814690
C         -18.21464850427573   10.44605293418198    2.69644183482747
C         -18.02644247689583   10.96639908335282    3.92291590394629
C         -18.98455873996051   11.79388773394232    4.63181523780176
C         -18.46595329921135   12.86410286189806    5.37984606443534
C         -19.33443032829041   13.75484927715318    5.96232242907659
C         -20.71816467395335   13.60553869375672    5.82052785728061
C         -21.37685097304324   14.72567048087055    6.53487923243726
O         -22.54845567263446   14.97607911637426    6.65685189561581
N         -20.34003100044449   15.48440858118175    7.06062734925345
C         -19.08376128587276   14.97121455766834    6.77343744020849
O         -18.03903545567898   15.45651659868028    7.12569748199271
C         -20.55213651484014   16.66913201983527    7.86484032499596
C         -20.67750468721021   16.31888072801560    9.34311259457145
C         -21.24596175680101   12.54300801507736    5.12415386969171
C         -20.37927577359362   11.60786611077506    4.54617214968400
C         -20.99607764464182   10.41909700089334    3.94762728466974
C         -20.63176427958600    9.17400926725242    4.21471503121517
H          -0.70230392048841    3.57422550313316   -1.42352176603494
H           1.44712177959396    2.37746381616178   -1.14454308763022
H           1.46817745080740   -2.14358692228601    3.07160306396474
H           2.93930213974594   -1.60426374461734    2.20679672616631
H           0.80711197626435   -3.49340969440828    1.08109838794804
H           2.40281593751900   -3.98281602546957    1.66277345569932
H           2.26499017561043   -2.95954355202824    0.22849189585456
H          -2.60405329079423    0.89262019984617    1.35143245921006
H          -2.94913982798237    3.85398418712462   -1.05308607579950
H          -4.27479391728119    2.15052870192448    1.11948065375926
H          -8.97394892783094    5.96884639615943   -2.94651622324026
H         -10.74198695944209    6.06109434748937   -3.13757815474330
H          -9.19392378191982    3.54857561899400   -2.29223105741643
H          -9.88802202802067    3.84358021916041   -3.89003410336135
H         -10.94619666447761    3.66382039988269   -2.48742598108415
H         -10.48209003719126    6.38771004388856    4.83234632334745
H         -12.18892291188664    6.80542496179127    4.55673970187039
H          -9.78450032615566    8.69261630952106    4.30382005595574
H         -10.97324849852779    8.70853063665411    5.60890228129260
H         -11.45193249503409    9.16504894733242    3.96943765862820
H         -13.32456037810020    7.99601075421489    2.97860900806914
H         -13.75621771625187    7.38011951207346   -0.00421875130356
H         -18.60210301536290    7.52254391187132   -1.72668802907537
H         -17.87246835649565    8.99518678975485   -2.33041689198511
H         -19.14627838035701   10.59160923767019    2.16645186622087
H         -17.05702649616367   10.85247666300943    4.39497562410413
H         -17.39877526202773   13.00045968139599    5.46918020868917
H         -21.46824393343638   17.14590949677698    7.50809715530445
H         -19.69897080810755   17.33169890321993    7.70125071628196
H         -21.51962005236436   15.64890063981245    9.50015060108215
H         -20.83756591350844   17.22351160823478    9.92261902869078
H         -19.76865320269821   15.83477934507573    9.69299810130222
H         -22.31496079041187   12.41700335168193    5.04276173128573
H         -21.86304182671804   10.61001352395008    3.32858156019624
H         -19.79933386418064    8.95208759948867    4.86220758792187
H         -21.15587821139437    8.33167483830236    3.79867108821504
