110
 SCF done       -190.835444128546          0.000753639888
C          -2.40255029014636    1.78766195575797   -3.38583713980330
C          -1.33087205982383    0.95520073490944   -3.67117483974545
C          -0.65591872775300    0.37903227798194   -2.61363763276830
C          -1.03966649355329    0.64052683548173   -1.29464209426168
C          -0.12697568824043   -0.11077945484136   -0.39460994039152
O          -0.10621061070778   -0.15891284724213    0.80845579735590
N           0.75141625143639   -0.77557961054057   -1.23611708139252
C           0.50455130290074   -0.54114486455612   -2.58243945903864
O           1.13934712912550   -1.00905569858250   -3.49317435718571
C           1.79069658756591   -1.66425801845643   -0.76128504341202
C           1.27000129458978   -3.08905492431193   -0.60894091850240
C          -2.09617908352714    1.47050726097135   -1.00703134603716
C          -2.80643782415281    2.05259852027133   -2.07196730670530
C          -3.92975769150293    2.91264000299648   -1.75394677014690
C          -4.87044681011148    3.33246902854928   -2.61461636807670
C          -6.00293187690236    4.17218769683589   -2.28623363816486
C          -6.11346875901672    4.87147674827733   -1.08372874028015
C          -7.22497973782790    5.64942711419119   -0.81428943566743
N          -7.17080702873613    6.46137946495938    0.37904212912456
O          -6.59701225125259    5.99862125901455    1.33936334827520
O          -7.65103447938051    7.57347698648261    0.32306690191332
C          -8.29962657594494    5.74128650191561   -1.71334548578471
C          -8.15124713762736    5.08463126848809   -2.93934752686326
C          -7.03734045626903    4.32648584759521   -3.21960931075929
C          -9.54773294389758    6.41422664651360   -1.41381961392917
C         -10.16439426422725    6.34045791899835   -0.21929669485240
C         -11.41850243605833    6.90197005232808    0.16617075693734
N         -12.10572262511836    7.94797568844272   -0.39847893090504
C         -11.68748322944318    8.82527421642594   -1.46498387621010
C         -12.26772724883615    8.39557564524622   -2.81144214651586
C         -13.32878391899302    8.19226023763699    0.27034921127825
O         -14.09862513786097    9.07304268322800   -0.04781642230963
C         -13.36335349336170    7.20159194725718    1.32024734136607
C         -12.17303815686585    6.43978102608439    1.23699650399236
C         -12.21364906083418    5.44492324094162    2.28045186515774
O         -11.44483744806991    4.56392780697887    2.60053724134301
N         -13.44612415079233    5.67819123469048    2.94092959279104
C         -13.76837763584707    4.90437057445538    4.11423414638634
C         -13.56392951860544    5.70445166994848    5.39875995518964
C         -14.13915292146730    6.72242460142295    2.36957379371803
C         -15.42681874042828    7.25741869223623    2.66379090933180
C         -16.33751381229859    6.86366411576495    3.57916037339877
C         -17.65164364901354    7.43676202565452    3.75240185138569
C         -18.15959495326349    8.46675265478753    2.95575189670296
C         -19.44245952840226    8.94072534872626    3.15643133629607
N         -19.94132176893159    9.90239163268540    2.20004895744454
O         -19.18681268422032   10.77898647319474    1.84636170299981
O         -21.06864522867319    9.73938202028305    1.78358810112625
C         -20.27067559347593    8.44777416125293    4.17535856947882
C         -19.76141865621361    7.40515664580813    4.95283101018494
C         -18.49220866380998    6.91404019636499    4.74750696618408
C         -21.58461177004310    9.00248110980038    4.45793276112378
C         -21.85558410458542   10.31209868319746    4.50061267694392
C         -23.16674164169940   10.87542654244518    4.78106358895223
C         -23.22888559181472   12.02928897473193    5.57470371206083
C         -24.46071321280166   12.54343354091938    5.90228872679353
C         -25.63531064215195   11.94309857315060    5.43418736433826
C         -26.78548456927195   12.72804352204517    5.94237741145424
O         -27.96661178134821   12.55809590173369    5.77486107147436
N         -26.22671315985625   13.75928247878404    6.68396036534061
C         -24.83942357682608   13.72063980044562    6.71847179158708
O         -24.14065926837532   14.50994444026982    7.30205865117836
C         -27.01363370194280   14.75016970021311    7.38610051792240
C         -27.37441477978986   14.27628874392839    8.78958168823317
C         -25.59153879065754   10.83596187117303    4.62038253058347
C         -24.34728883749377   10.28812812606929    4.28085823246682
C         -24.29061353734312    9.17332236766266    3.33773157048641
C         -25.19328569168456    8.20328760167006    3.26611158686307
H          -2.92758228485623    2.25431591250759   -4.20459291701857
H          -1.02717196002373    0.76205690178073   -4.68822725764160
H           2.13541161146331   -1.28012144645525    0.20174748218110
H           2.60505868257713   -1.63158430842999   -1.48898952876819
H           0.45000874584983   -3.11468912629846    0.10510280062241
H           2.06608060693760   -3.73543670856103   -0.25079799426879
H           0.91798322420397   -3.46483015667521   -1.56694968741318
H          -2.37898826840545    1.66294282011801    0.01688537018767
H          -4.00173808708416    3.18824455691631   -0.71071105530512
H          -4.83819062382991    3.00707099306551   -3.64558080075912
H          -5.32082818466213    4.85066044798865   -0.35178558823758
H          -8.94708737575051    5.15648469277499   -3.66555497014999
H          -6.96350477865477    3.82591236356807   -4.17390071990599
H         -10.02006357831226    6.89502925846571   -2.25633263269759
H          -9.73472232893913    5.72707112247587    0.56418269244920
H         -10.59665938841659    8.86648054268473   -1.48357467265863
H         -12.07485854614052    9.81944963951309   -1.22080066009305
H         -12.01133036621903    7.36381108237877   -3.04433327934174
H         -11.89046409471432    9.04111095797555   -3.59986402899497
H         -13.35113148211989    8.47853917978365   -2.78228261371911
H         -13.07569739282763    4.05669516994128    4.10272556332602
H         -14.78740533798294    4.51584990613385    4.03751051987101
H         -12.52069276712910    5.99768703252847    5.48517530386379
H         -13.82393489603110    5.09406370163910    6.25940458363156
H         -14.17489361113654    6.60440995988562    5.40584790200717
H         -15.66154646998853    8.08459829226829    2.00662440198599
H         -16.12309445085739    6.04803501509636    4.25202849700915
H         -17.57694646893969    8.89391473830088    2.15416937510496
H         -20.37777049364137    6.99657802608078    5.73941454020885
H         -18.13091721751933    6.10761138315233    5.36911617658647
H         -22.35390564687126    8.28466681990392    4.70827330512684
H         -21.05625600508469   11.03396563498174    4.37960058567758
H         -22.32418117825117   12.49366776722455    5.93719273659859
H         -27.91909355630521   14.92485833454156    6.79980889950850
H         -26.41809160037327   15.66498868478756    7.43378760403615
H         -27.95339305679015   13.35706074017570    8.73739606114063
H         -27.96678012267449   15.03483408722390    9.29324049258880
H         -26.47170633807611   14.09474650940451    9.36846229419995
H         -26.50098850970620   10.41042459797947    4.22617956187934
H         -23.44722214974453    9.18190204842121    2.65889897391922
H         -26.02460935987021    8.13850097079532    3.94903012112896
H         -25.11798175006428    7.42056663158940    2.53139017506132
