98
 SCF done       -189.701107445845          0.000662420660
C           7.91908567195403   -3.76657341264847    1.60510256091585
O           7.63145196950545   -4.66841938025677    2.55786164953476
C           6.37907362969852   -5.11114816656994    2.35904907686358
C           5.85394202437877   -4.45926377348303    1.23727691525291
C           6.86813433273437   -3.58968983506747    0.76050538498669
N           4.57303266578023   -4.60996291371252    0.66738570974637
O           3.80100461086896   -5.39600833637456    1.19117451759425
O           4.31823683054013   -3.94325564437068   -0.31361461647745
C           5.77712103893414   -6.07064128360434    3.21438303493928
C           6.41836830750486   -6.65426680977911    4.25917099320205
C           5.81700546739405   -7.60516154482331    5.12240260773782
C           6.45701343171796   -8.63016260744728    5.81346436939493
N           7.83801951478115   -8.88058507727636    5.91085609304550
O           8.61296547812569   -8.12454592680183    5.34747549065148
O           8.18274749478801   -9.84931124780606    6.56454826771309
C           5.47489484187456   -9.48547721267219    6.41618837929915
C           4.23807125437987   -9.02953245049611    6.08445197675455
C           4.37810935795909   -7.81954607986623    5.32132608777156
C           3.35836202201720   -6.92640474471140    5.04187461952656
C           3.45240726727774   -5.50167611195454    5.04668011786894
C           2.19320130306543   -4.97420836350012    5.04497770656012
C           1.24597708411591   -6.03815647301554    4.96177861819813
N          -0.14077303519937   -5.82467282675425    4.83042874084835
O          -0.54928769769017   -4.69770048777057    5.04495867688412
O          -0.84632013598406   -6.76480720659132    4.50921918327695
C           1.92193776571102   -7.25970129936081    4.94055973375007
C           1.36328439312004   -8.53092969661368    4.74617427051877
C           2.02953907874276   -9.58985298208268    4.17865555444975
C           1.46060468714360  -10.86446453371680    4.05616453650269
N           2.00961811916072  -11.89672684634924    3.33386750479588
C           3.26306915887484  -11.86966115757425    2.61648841076330
C           4.45462114054208  -12.05485850212021    3.55291144943129
C           1.21574241789163  -13.05185904439912    3.37363381572135
O           1.49342880385925  -14.08285389028825    2.79769620740327
C           0.08740960066228  -12.68384468090817    4.21269011425123
C           0.26561121616149  -11.35492220250711    4.61728082736177
C          -0.82747352431867  -11.00086746404786    5.50749514655771
O          -1.06243925338169   -9.99793660523792    6.14081200284370
N          -1.62332846314879  -12.16101565324933    5.55106310698566
C          -2.86119563697619  -12.18467089246724    6.29573547593525
C          -4.07097484003130  -11.98793494754875    5.38669865398279
C          -1.10195922663203  -13.17574618099309    4.79169529518534
C          -1.68305552375995  -14.44883028650836    4.67568410857362
C          -1.13794572916113  -15.45028401222130    3.91694129552033
C          -1.69604061916194  -16.73957216895293    3.79943622839138
C          -2.84424714399881  -17.25024821265778    4.38421465523646
C          -3.00980058142687  -18.60380698543663    3.99208840368602
C          -1.87233543190143  -18.91495246285609    3.10368481562866
C          -1.10270933132715  -17.80192172028390    2.99780905215522
C          -1.61811296580450  -20.13868648807551    2.47269204871661
N          -1.38667314145543  -21.13254738563069    1.94604359049383
C          -4.02137872839741  -19.46323500837186    4.36715380390074
C          -4.19255967751434  -20.82508681206575    3.99236303099919
C          -5.32820919042013  -21.31334107161915    4.59597487683589
C          -5.92240336802096  -20.24878583839159    5.38636161983515
C          -5.15185954220024  -19.13660091790295    5.25924773944595
C          -5.40603776307402  -17.90745124418267    5.87552194382989
N          -5.63125172381570  -16.90701318683208    6.39446304427931
C          -5.86595266268069  -22.62672515781412    4.49631368055714
O          -7.00459028199162  -22.93348597384061    5.17214587502288
C          -7.31904323688156  -24.21226165774723    4.93331096350634
C          -6.35609810270699  -24.75412586822458    4.07637947051852
C          -5.42586445205623  -23.73279741109050    3.79907495475612
N          -6.28803819915057  -26.07313263716739    3.56060303051014
O          -7.16444487911730  -26.85482570142891    3.87363405019626
O          -5.35160967690721  -26.33283597631908    2.83680510982153
C          -8.48310333970031  -24.80649787867378    5.52650249298159
C          -9.30914545551398  -24.14273402885199    6.33667173039135
H           8.89447845995917   -3.32305815085537    1.63177534530420
H           6.79516376483658   -2.94179571271890   -0.08749324093874
H           4.75929064438480   -6.32958908215655    2.96219796225941
H           7.47145048664183   -6.45672765530317    4.41412301274229
H           5.72136114554550  -10.33418304386800    7.02539615415120
H           3.30240732813721   -9.41531902884178    6.43954297919716
H           4.36762788579360   -4.95374301126422    5.15644984707950
H           1.91984089109649   -3.93680166156357    5.08897379461919
H           0.31454673328707   -8.64135794619561    5.00051524613564
H           3.01285973949702   -9.42991476053443    3.75985436597226
H           3.34272574066397  -10.93166993473950    2.06101182135514
H           3.22464600353362  -12.69867285819079    1.90468399716524
H           4.49444495608027  -11.26742344810767    4.30279804636045
H           5.37683772386010  -12.03740417158309    2.97935494387649
H           4.38257325413190  -13.01311153887155    4.06120628942500
H          -2.80025010822359  -11.35784980477002    7.00848453289557
H          -2.93694641101464  -13.12363644805708    6.85014164425618
H          -4.00443323020531  -11.02771693341476    4.88126491599063
H          -4.97965232668661  -12.00536508459454    5.98117332493710
H          -4.13024845392459  -12.77317733851852    4.63632583620483
H          -2.59816264730878  -14.63451125508730    5.21844853592122
H          -0.22262024266974  -15.26039993567466    3.37116428440015
H          -3.51517030269805  -16.72602678447598    5.03435804802584
H          -0.19994620204706  -17.69498225263541    2.42553905521008
H          -3.53494521119488  -21.36971232901583    3.34573174159191
H          -6.82091458632557  -20.34841457993597    5.96560488085792
H          -4.56162684250302  -23.81583721212246    3.17367123407828
H          -8.64707138082690  -25.84244382250590    5.26920180251554
H          -9.14207330007609  -23.10955373698220    6.59175487060015
H         -10.17217293145535  -24.61986988743434    6.76473484345245
