91
 SCF done       -157.036726443592          0.000297205377
C          -0.79891257898466    2.92268045014287   -6.30564004403479
C          -1.61077604337774    3.88978511060569   -5.72314017055011
O          -2.15665939336359    3.55397587723507   -4.51184164235047
C          -3.51631461694591    3.84996537263864   -4.26926471409146
C          -1.81982350896154    5.10236593292981   -6.40524920178215
C          -1.29342974938287    5.23667946404876   -7.68892794084408
C          -0.49964887939003    4.25737775246851   -8.27181244027887
C          -0.22805675592677    3.09787392852333   -7.55137205316188
O          -0.03749928044203    4.52968149512593   -9.52634743777337
C           0.77239605385336    3.57125697953228  -10.16138635560766
C          -2.49667346237407    6.26052032245395   -5.84161212048874
C          -2.39098090563961    6.63482207792504   -4.55779238784093
C          -2.99674824805529    7.78436540475824   -3.93347593961765
C          -3.70407697159143    8.81562841220305   -4.55306972753836
C          -4.25585036014349    9.90050996236376   -3.82845660103927
N          -4.90092001182364   10.82331592678111   -4.59893332840472
C          -4.87436575909864   10.51977810816762   -5.83423051408769
S          -4.05126008234707    9.03834270501836   -6.24597150489624
C          -4.14866359112363   10.01896515200030   -2.42738913472969
C          -3.44168005698413    8.98698025752463   -1.80742276147377
C          -2.88084766519295    7.90783177961993   -2.53442567833498
N          -2.22979714404872    6.98735699473556   -1.76611860691212
C          -2.25273250864575    7.29021972424146   -0.53118558139051
S          -3.08835280860998    8.76542871467760   -0.11616897044895
C          -4.77167648197091   11.15846452323033   -1.80567931060426
C          -4.82218548528759   11.44218628030277   -0.49422046692150
C          -5.48834625199528   12.58650194398568    0.08995842676685
C          -5.58069693401528   12.68821732041132    1.47971684249762
C          -6.24000243600965   13.76590743115890    2.06004644223013
C          -6.80611291285469   14.70825533521032    1.19690303151090
N          -6.70436376534876   14.64011912817914   -0.11611548823290
C          -6.06052950681557   13.62596201110125   -0.65610457779605
C          -6.37063164366201   13.88960284412060    3.51137238697972
C          -6.25501935319295   15.09682267929790    4.19072679386353
C          -6.40847131377586   15.22902254992442    5.59714700988467
N          -6.21979794273554   16.50128007114272    6.05171464194882
C          -5.93047789400792   17.31249780730094    5.11309441746450
S          -5.85027223451616   16.64737908771900    3.50445559157798
C          -6.71916476925907   14.11722273486596    6.40360145643710
C          -6.82139097112006   12.90845079124888    5.71279745448459
C          -6.64576468052253   12.77413197991898    4.31447289391442
N          -6.79572707206391   11.49812785360690    3.85137291328200
C          -7.06048070765658   10.68111628923118    4.79140234841679
S          -7.17249322072842   11.34767970794546    6.39987081410075
C          -6.93151810081639   14.14515445636184    7.82862565104380
C          -6.85548262067039   15.23543824002646    8.60900640069204
C          -7.08899836880046   15.29040469193305   10.04004680915874
C          -7.04345525372154   14.18111699925391   10.89531091410989
O          -6.74120082077032   12.91807179726370   10.41095020930782
C          -5.36461948716729   12.60828949872723   10.45472113671571
C          -7.28492334420126   14.33418250120632   12.27060339425045
C          -7.58423746104899   15.59263432236148   12.77193829172832
C          -7.62477609277170   16.70743058731738   11.93752983811886
C          -7.36967370232701   16.54970453006646   10.58571078016784
O          -7.92202517124321   17.89042455372883   12.54460277333436
C          -8.00218159026661   19.05028333158176   11.75232401996709
C          -7.24050339495777   13.15540730607027   13.13377928047011
C          -7.00767380688920   13.16487012545211   14.43915649385741
H          -0.62709795751079    2.01133788972216   -5.75408555480965
H          -4.04886089047614    4.09130161938544   -5.19144717948325
H          -3.61827196513966    4.68470493202313   -3.57026502558085
H          -3.95665096512315    2.95619752988837   -3.82126944535352
H          -1.46720474663680    6.14678135272883   -8.24234719699432
H           0.39867927628564    2.31879134505305   -7.95437448549774
H           1.01498144479935    3.99041073722287  -11.13669795328570
H           0.24271922067215    2.62266217094109  -10.29798254740711
H           1.69846435415952    3.39361978557060   -9.60478658384004
H          -3.03616541325755    6.86916539629480   -6.55461956248955
H          -1.79472476370832    6.04105441369958   -3.87873967116656
H          -5.32461346580191   11.11514632275250   -6.60428660745785
H          -1.79683573531241    6.69705407372797    0.23704953915299
H          -5.24771901879712   11.81349636730551   -2.52070804670773
H          -4.36306184324379   10.77877175170297    0.22639322914367
H          -5.14211894695728   11.92693365256273    2.10739137197259
H          -7.38327644476102   15.54116357242126    1.57542477055947
H          -6.00012673322104   13.64463710563580   -1.73511370371430
H          -5.74545531428103   18.35742638489397    5.26977379648193
H          -7.21088913623314    9.63048288120426    4.63611207451447
H          -7.18788563081536   13.18865802245431    8.26291363357048
H          -6.63267407326030   16.18508889908059    8.14193394448833
H          -4.78454850494295   13.29737750021096    9.83036469445205
H          -5.26719497669056   11.59592002104560   10.06585734966472
H          -4.98120532799533   12.64632643393027   11.48061362775941
H          -7.80583087450051   15.72946109935206   13.81757165076915
H          -7.39881253087269   17.39245028921380    9.91289472371651
H          -8.26401961368960   19.85607934719826   12.43633060424409
H          -8.77842387590040   18.96054002444864   10.98557239053493
H          -7.04373916704171   19.27906109107507   11.27505163222783
H          -7.39524737636120   12.21579563725549   12.61949743358858
H          -6.81605118010018   14.07355099310713   14.98458501461947
H          -6.98973870147948   12.25401213994302   15.01279732527748
