56
 SCF done        -91.606803209254          0.000465287256
C          -0.78397712280783   -0.26423373440298   -2.23298151430662
C          -1.27628436628470    0.99796786672324   -1.92418396433216
O          -1.82700909155896    1.85077210338843   -2.83917172601359
C          -1.91039717008448    1.43661451167806   -4.17981828453670
C          -1.23101258844617    1.45022946774146   -0.59020215036984
C          -0.67820568476133    0.62167813646955    0.38717607063350
C          -0.18411015610857   -0.63379143022902    0.07167906075423
C          -0.24586297936348   -1.07056540118965   -1.25025393120896
O           0.37815386498967   -1.50223865172087    0.96255250139177
C           0.47633326573487   -1.10980747745176    2.30913994323197
C          -1.73821369109575    2.77283556128892   -0.27900856063335
C          -2.08944435320904    3.21335877610652    0.93692692620793
C          -2.59164522930014    4.53827971804280    1.24341747203398
C          -2.47981425502542    5.62871947533182    0.38175807139242
C          -2.98240388460169    6.87247208683737    0.76352403256382
C          -3.58479395033773    6.95804681829472    2.02578332096314
N          -3.68929201594455    5.94056934350062    2.85480281289456
C          -3.20709100613856    4.77195531398999    2.48057738395591
C          -2.87740597999123    8.03439284428170   -0.08894811714174
C          -2.55255204644838    8.09917204916061   -1.42133802946083
C          -2.53851157620274    9.40117223659314   -1.93377045900661
C          -2.84957985583745   10.35725673820193   -0.99683939821962
S          -3.17670129827543    9.62666781252922    0.54704108641579
C          -2.91440709151083   11.76990036421188   -1.16184766402615
C          -3.22662895318903   12.72295192238926   -0.22202462831380
C          -3.18306506722597   14.02909394501723   -0.72039767929338
C          -2.83993367783667   14.10344651738317   -2.04818044802546
S          -2.56538524376632   12.50707657464894   -2.69598670894203
C          -2.69617037663886   15.27133864497013   -2.88239599103455
C          -2.45985721280008   15.16400987421732   -4.25651624976780
C          -2.32956077033117   16.30901140083292   -5.01752452766769
C          -2.44026045540889   17.53894155403850   -4.38427959695066
N          -2.65873905518948   17.66067571581176   -3.08524486460683
C          -2.78057977919643   16.56988460760505   -2.35984576103703
H          -0.81116682581791   -0.63476295949703   -3.24514527269438
H          -2.38362998407496    2.26048401984016   -4.71238369348059
H          -2.52699178006957    0.53838298120256   -4.28666434594137
H          -0.91990565013186    1.25183886340125   -4.60845759236524
H          -0.62419579053787    0.99269935101055    1.39705005282324
H           0.13993288888820   -2.04799767804723   -1.49092091770412
H           0.95664063904465   -1.94076194528491    2.82347443022755
H          -0.51035525605098   -0.93425378433304    2.75054650778126
H           1.09135035814304   -0.21102814506299    2.42351021225668
H          -1.86151054547173    3.41347865001420   -1.14002690271520
H          -2.04581737776088    2.54592650338017    1.78737569133664
H          -1.97829221684072    5.51763932228917   -0.56694551984067
H          -3.99553779236959    7.89710048323761    2.37495829864694
H          -3.31484540518690    3.97051778660912    3.20064548135530
H          -2.34148011433830    7.23260616762096   -2.02161270522076
H          -2.30752256111059    9.64504606179290   -2.95586645887096
H          -3.47686824990298   12.47297158277215    0.79393823102878
H          -3.40507510437522   14.89118459138578   -0.11814860734348
H          -2.38340896165110   14.18553334447297   -4.71057970921246
H          -2.14769123822485   16.25019784890057   -6.07945401301441
H          -2.34997519470096   18.46662539921586   -4.93303010246622
H          -2.94913498327876   16.73540626876542   -1.30476149211289
