74
 SCF done       -142.613953700316          0.000983675129
C          -5.10029177186885    1.41434725454060    6.46860184633808
C          -4.65487057772127    1.82447631611409    5.22279121968488
O          -3.97376889019477    1.02914793366166    4.34762983383017
C          -3.69470521311423   -0.29852874635799    4.71753898996788
C          -4.89123212383081    3.15541862526905    4.80757292987499
C          -5.57184361757451    4.00992315686053    5.66468757194400
C          -6.01845880712782    3.59251970359169    6.91492219588858
C          -5.77618932859563    2.28440164724403    7.31185233211619
O          -6.67613515099826    4.53083902871606    7.65507603704252
C          -7.14965953540636    4.16671240822240    8.92853712627115
C          -4.43564564201634    3.56901501979410    3.49505627513236
C          -4.24562793411369    4.83419210223063    3.09582766978154
C          -3.79108312554028    5.22904023219969    1.77777530436703
C          -3.27964617623311    6.50979409767670    1.57180430869641
C          -2.83724890485357    6.89395403427045    0.30528652983303
C          -2.96165811242908    5.95182198584715   -0.72573839063486
N          -3.46607334437987    4.75003341458422   -0.55005116460462
C          -3.86531867925016    4.39266280188717    0.65417407425164
C          -2.26673057990295    8.19113892080536    0.05646354480682
S          -2.28862925985106    8.89192075355953   -1.54152815593691
C          -1.44685183732868   10.34832326887415   -1.05356529257728
C          -1.14660969700729   10.26942184055524    0.30637144647749
C          -1.61915046222856    9.06227734473512    0.90991378075757
N          -1.26207859501388    9.08452599092756    2.22382635373879
C          -0.58076264898249   10.26136601799007    2.46575549468143
C          -0.07254390259848   10.56161453308241    3.73730852720235
N           0.34619383467657   10.79475524807402    4.77991175472182
C          -0.49810097708732   11.01575504516162    1.31418495593634
C          -1.17720561575951   11.37563901626714   -1.96680453961051
S          -0.25168011440157   12.78684587204909   -1.51864839694784
C          -0.38936797766201   13.53935541438019   -3.09889529660306
C          -1.11259829267285   12.68160913991891   -3.94375048647627
C          -1.55514082579705   11.49498988379198   -3.30186814835245
N          -2.26432144763241   10.76056875229872   -4.19699733448240
C          -2.28763404683799   11.45099133656083   -5.38934267941714
C          -2.94866632903178   10.94745552717681   -6.51867121468514
N          -3.48615673542261   10.53519151736343   -7.44456846460917
C          -1.58801134782634   12.63707630397631   -5.27002001936133
C           0.23157802874793   14.73043220063735   -3.47222116786914
C           0.86219908258783   15.68665288320837   -2.71419033871053
C           1.88780500488640   16.54496059717873   -3.36880978440030
O           2.09196159476622   16.65145618936755   -4.55640672540444
C           2.60894477304763   17.16917368213170   -2.24890190863522
C           3.68702593908731   17.98150111638307   -2.07621307836081
S           3.95336638722596   18.29751050396125   -0.37577080605477
C           2.59050092724015   17.33589212747155    0.07840883507824
C           1.98292037903367   16.80231432051164   -1.01199265627798
C           0.81441730169537   15.98993175282923   -1.30655435898923
C          -0.23667887466404   15.80806213993746   -0.43879746695188
C          -1.50118771105581   15.33303094624484   -0.82874102126919
N          -2.55812505544502   14.99734511266997   -1.12929478212285
C          -0.15020182426845   16.19623141168863    0.91086512282183
N          -0.08200544804493   16.48327569309921    2.02050174384857
Cl          4.69488027001241   18.65202991361640   -3.26262105142719
H          -4.93217861761013    0.40482877084076    6.80853212117869
H          -3.14259377090491   -0.72552738188533    3.88143493879098
H          -4.61173393296555   -0.87516000359819    4.87634609420739
H          -3.07456350510820   -0.34314420874200    5.61866665015812
H          -5.79236945329570    5.02162766747197    5.36617710665766
H          -6.10710788438506    1.91864866034815    8.27055348431980
H          -7.63070108839746    5.05745269827642    9.32932034670421
H          -6.33132689448796    3.86896732456372    9.59240682851572
H          -7.88351289121580    3.35626745499685    8.86916555510630
H          -4.20268365931984    2.75365000335394    2.82575326877870
H          -4.39855876872942    5.64868370146107    3.79201671401099
H          -3.25700253245979    7.21238961484369    2.39359763622656
H          -2.63184507292757    6.18999989740946   -1.72904359845632
H          -4.28792193562158    3.40096061470372    0.72555699213661
H          -1.39717881609582    8.35219323977848    2.89992223598223
H          -0.03077306603681   11.97483519487469    1.22114542384286
H          -2.71729532749424    9.87748294911406   -4.02940993195031
H          -1.44767880751809   13.36589771680558   -6.04213418269277
H           0.31596636694929   14.88176313586492   -4.54488858639164
H           2.34518267643616   17.22796961464734    1.11619982849567
