124
 SCF done       -219.776560577720          0.000875859796
C           2.88578401749503  -13.44204755851697   -2.36160668200526
C           2.35306653162782  -12.79058684763226   -3.42080743222190
C           2.61395577664704  -11.39324536735325   -3.41355947165475
C           3.34901296341972  -11.01580288426828   -2.30416611438305
S           3.71243101990052  -12.37885035056506   -1.29059029552719
C           3.74409776096440   -9.70996026713869   -1.94689196527821
C           3.73131678947768   -8.57885566249424   -2.74847184742970
C           3.37742903185823   -8.42532847880527   -4.16651665527826
O           3.75966982214897   -7.43130088914603   -4.75478072296907
N           2.56744666271096   -9.33736623647045   -4.83436674567899
C           2.03737558126916  -10.57738718113581   -4.48545183218974
O           1.12701138327516  -11.03593571337026   -5.14968727638552
C           2.10597773836567   -8.85605833233293   -6.14440622244585
C           0.85676883402499   -7.99598809301907   -6.00841576080156
C           4.21261870515746   -7.44376067753330   -2.06349560720587
C           4.58356796158573   -7.67896940996894   -0.76297464110641
S           4.35569287570847   -9.36109271512834   -0.35973036879354
C           5.08229256198449   -6.73323251233826    0.17200305479578
C           5.44221176940932   -7.02807833647518    1.44116576689594
C           5.91566821920316   -6.08099758297828    2.38399903776488
S           6.10962888547035   -4.39977518650747    1.94819341984332
C           6.75126350539491   -4.00880315738388    3.51867235809127
N           7.10403835797750   -2.71571279067294    3.81427245919874
C           6.55542368868293   -2.06909585493921    4.99459488704257
C           6.81346797236876   -5.11998996281431    4.33844423437512
C           6.32734387156414   -6.28707258308314    3.68778137229623
C           6.41924874668597   -7.63014281587207    4.30395296698337
O           7.38726766359358   -8.05680144734756    4.87799135205989
O           5.29061427880376   -8.33907551953205    4.13411137359121
C           5.30065728194920   -9.65309257906240    4.67395503715723
C           7.32935410317152   -5.08995798250025    5.69441081036047
C           6.76254272041441   -5.76245409173227    6.70724760294292
C           7.21429588209800   -5.81205672327055    8.06167193373915
S           6.43641389073626   -6.97208094209145    9.12247865306946
C           7.47395331341657   -6.55795550169972   10.44770129744713
N           7.31908574601445   -7.16841467067769   11.64442948233171
C           6.20721232193228   -8.04922793799851   11.88946860486756
C           8.38585158200540   -5.56524639151776   10.09282030981476
C           8.20539963872209   -5.14905582932594    8.73831779849882
C           9.07993373996263   -4.09589092704600    8.16538023424149
O          10.26724013747255   -4.19278505663509    8.00451408220477
O           8.38789241960093   -2.97343629305980    7.89747063205788
C           9.15251825904888   -1.88370926369640    7.39954212237722
C           9.34875538618561   -4.94457770405791   10.95380075822169
C           9.83351319368908   -5.42582946109254   12.11667677769345
C          10.71974064960088   -4.70604818309811   12.96569269151330
S          11.44782360359795   -3.20132863325742   12.46752234085380
C          12.34623028101819   -3.08424114899134   13.95789599384848
N          13.17767724359146   -2.01493105480507   14.17909995711797
C          13.02973029724800   -1.17820949304911   15.35734918637175
C          12.08165787685359   -4.14253869586792   14.80547749813619
C          11.15371796906679   -5.06505421069893   14.22688427917479
C          10.75183361969676   -6.35224595366913   14.81894809191142
O           9.64810638825259   -6.84140173702993   14.71553629502271
O          11.77306165093404   -6.94455166763255   15.44989190064860
C          11.52761857420563   -8.18182981062228   16.10083818986479
C          12.68715853986622   -4.24119632555241   16.11022464702861
C          12.09889097023095   -4.74730391930224   17.20831228558893
C          12.72976976888016   -4.82806316742004   18.48472147021982
C          12.21936552122190   -5.37811549989966   19.63179236744357
C          13.07440411502586   -5.29145113336878   20.75163938959769
C          14.27001459147205   -4.66316161168997   20.44287024842333
S          14.33084832690357   -4.19648761248251   18.77063683960627
C          15.35897186078504   -4.43238602179579   21.30578430742800
C          15.37229078940258   -4.52671640378018   22.68938773935052
C          14.28758434383737   -4.83610649132448   23.62838644069772
O          14.42878516699150   -4.53640185134436   24.79939605211563
N          13.14069656622479   -5.52297101296002   23.23991425069515
C          12.64146796701930   -5.92120016849544   22.00441177372315
O          11.75462822062488   -6.75335132445813   21.96560649498034
C          12.33282037310957   -5.99400529243849   24.37444122282155
C          12.84703237868131   -7.32613199711438   24.90273484236309
C          16.63438970113162   -4.18872658127159   23.22909747648972
C          17.57490395431631   -3.84942952349157   22.29660701033717
S          16.89942317504340   -3.92472763721890   20.69243762905296
C          18.94990790443602   -3.45993328180755   22.46619855767214
C          19.58034289556040   -3.38093969043108   23.63526629043623
H           2.84483975898962  -14.48840831704201   -2.13425512868789
H           1.78682635863465  -13.25872025257145   -4.20487045524943
H           1.89402974368709   -9.73044150665141   -6.76028948302541
H           2.91958665411144   -8.27778251401978   -6.58385592206937
H           0.05154657195226   -8.57440990565474   -5.56211486993789
H           0.54142998415613   -7.65549959016802   -6.99065844322079
H           1.06373148595950   -7.12783281777083   -5.38689161317275
H           4.28024444697523   -6.48056682977906   -2.53565390731823
H           5.16308844133542   -5.71579315475645   -0.18913512585391
H           5.35289656652344   -8.04657571447736    1.79362647765666
H           7.06193261116505   -2.11371676246040    3.00063849288862
H           6.68506245865901   -2.71357536899271    5.86038245291444
H           5.48828573824327   -1.84448707470158    4.88166371003861
H           7.09502723538632   -1.13775816884660    5.15502378985495
H           5.46862443614345   -9.61768186899775    5.75239945707103
H           6.09540757905251  -10.24519985880227    4.21559515527510
H           4.32646394559089  -10.07993072332655    4.45056181118302
H           8.21735267992371   -4.49567867840679    5.84809562052677
H           5.86942238856717   -6.34361047880049    6.51263430108245
H           7.69684447341209   -6.68523672331969   12.44761220368653
H           6.19835711705206   -8.83678262754099   11.13414835713974
H           5.24549171766657   -7.52466507719645   11.84752691771871
H           6.32777215559282   -8.49948089967252   12.87139704678035
H          10.06535304589737   -1.76530829228714    7.98722698947577
H           8.52227795296236   -1.00242692604955    7.48688998894082
H           9.42647461116173   -2.05830621453088    6.35671962882328
H           9.71995902594336   -3.98546287190998   10.61216656166958
H           9.57268705077273   -6.40870311445812   12.47472042381164
H          13.33007665882968   -1.46592686126590   13.34227910976925
H          14.00092120081755   -0.75376192946201   15.61101071966497
H          12.67677321088079   -1.77884189028759   16.19118215199482
H          12.31978526969433   -0.36050858904229   15.19054809498857
H          12.17172282592853   -8.93940594175296   15.65424840713033
H          10.47960975974851   -8.46475245867954   15.98363872440093
H          11.77214216327017   -8.06400250626189   17.15725894521896
H          13.69181672827852   -3.84228573748186   16.18903241064148
H          11.08229320415677   -5.11422300074628   17.17172794082046
H          11.25120119335988   -5.84185652421211   19.69015100519727
H          11.30551925297581   -6.09997795554623   24.02509038150345
H          12.38666986785999   -5.23062197706457   25.15143913892218
H          12.80023380098522   -8.08135118178306   24.12197399608442
H          12.23196505546912   -7.64721543364936   25.73871546242827
H          13.87477077230210   -7.22440919377828   25.24365508384891
H          16.81114040906455   -4.20112627462423   24.28854879268227
H          19.47493891858640   -3.22260477389461   21.55009541369138
H          19.09138510386110   -3.60953239255791   24.56583369288549
H          20.61190049227889   -3.08210013726491   23.69301355161528
