110
 SCF done       -206.354406059118          0.000570379400
C          -0.51821373504889    1.92454118120381    4.61622547433152
C          -1.17789268123601    0.85164246921436    5.11316795154834
C          -0.34558935036257   -0.28404142662512    5.29928563602166
C           0.95766265981414   -0.03167355977459    4.91034224053652
S           1.14290629177910    1.59330476282558    4.32600687534354
C           2.03722649153429   -0.93998257103332    4.91571182051329
C           2.10578276543211   -2.15764798950401    5.57604368065728
C           1.13333015309589   -2.80914699853934    6.46790357498319
O           1.53041873649388   -3.68309355600629    7.21437327388593
N          -0.22271189190454   -2.50980465539801    6.42953591022808
C          -0.96287187925662   -1.52596136537229    5.77803647847446
O          -2.16780602851980   -1.65646900804812    5.68831768534435
C          -1.05562845733949   -3.47548583544286    7.16174666386220
C          -1.40371468632128   -4.67469266273841    6.29051061857940
C           3.35236832846937   -2.78747043290889    5.38968316291696
C           4.22987929224346   -2.08748387189629    4.59668481420295
S           3.50839114242716   -0.58682759677950    4.06940247742265
C           5.54820555131329   -2.46340799886374    4.23699417875891
C           6.36098212961649   -1.73272261748984    3.43479576720369
C           7.68304628743356   -2.08822485970263    3.08832221046042
S           8.45472521326030   -3.50187522270116    3.72246360809411
C           9.93469956246004   -3.19978596087157    2.88149247376633
C           9.83315179001450   -2.03472351889841    2.10732018140945
C           8.55255970982198   -1.40077463217426    2.22718240346691
C           8.28681368229798   -0.21877857304607    1.51718596500161
C           9.25288840348749    0.31917610586622    0.70021735956389
C           8.99698652774796    1.51393636349171   -0.00963415364800
N           8.77089508392532    2.48514883812183   -0.57448020368192
C          10.51702776447308   -0.33101319928739    0.55200112325329
C          11.48708022329147    0.22071304026137   -0.31532854250885
N          12.28893596084187    0.65279615013304   -1.01076069013996
C          10.79538330383693   -1.48735080058681    1.24031373796478
C          11.07526515896756   -4.02232482852317    3.09500375865460
S          12.67786856721100   -3.33182519123808    2.99990554938092
C          13.41476832526598   -4.80213601964133    3.57301228943553
N          14.77902915230918   -4.86614727582185    3.66650655930962
C          15.51965474697980   -5.91932199024133    2.99166413727982
C          12.46631676234993   -5.77930254553889    3.84503794580326
C          11.14286622871738   -5.33339557170403    3.53025993129978
C           9.93221191060224   -6.18189690338955    3.55059443192630
O           9.04375676416622   -6.09637502759754    2.73690039040680
O           9.91669879764009   -7.06425230558521    4.55651296665435
C           8.78052893829488   -7.91693861577281    4.61487350777039
C          12.74249834039572   -7.05548888741271    4.44592239300908
C          13.79741175754022   -7.29542127723661    5.25630752775386
C          14.09302586290950   -8.50750875853666    5.93689561741947
S          15.16590641186499   -8.40948246637968    7.29294795385421
C          15.02473203063848  -10.09233545122254    7.66841817394530
C          14.16585076619668  -10.72518703034324    6.76287316317801
C          13.65699582938897   -9.82810644277834    5.75921862200364
C          12.84724043576613  -10.34061416032745    4.72985159344431
C          12.46995714909770  -11.66175297006456    4.74280054063163
C          11.64175345837827  -12.16268130547963    3.71355367797997
N          10.95719609926638  -12.53699784848015    2.87383016441068
C          12.89464452085132  -12.52746215384927    5.79859824568342
C          12.44381513258134  -13.86727544094212    5.81828881222381
N          12.07994004941055  -14.95337842719534    5.84678030606006
C          13.73937745940778  -12.06666995731563    6.77798791759097
C          15.73852213606645  -10.61909825114559    8.77962602576518
C          16.15393975502706  -11.90024831085621    9.04193543166730
C          16.86127361118247  -12.04415683873898   10.25438286388526
C          16.99797705907974  -10.83978361197821   10.92676508996814
S          16.25662826703809   -9.53785912384598   10.05330341176180
C          17.65411733017122  -10.60857222428777   12.15092183676055
C          18.07164286577384  -11.55780004924365   13.07114836728594
C          17.94754995818517  -13.02073657347776   13.03902283605068
O          18.04986381607713  -13.63906260440312   14.08039194668699
N          17.82309194920625  -13.72670409945090   11.84491346192693
C          17.41042334317095  -13.37295341116842   10.56671536521666
O          17.45162604905833  -14.20128873351661    9.67708101437192
C          18.09318708921405  -15.16540056762319   11.99194670629317
C          16.81959572163634  -15.93953879911542   12.30266586874498
C          18.64013736664072  -10.96522068442872   14.21978901875256
C          18.67633560278508   -9.59732005226199   14.18903543999908
S          17.97177066306151   -8.99935408965198   12.71427971792573
C          19.18184511781650   -8.66229440165788   15.15916825581806
C          19.73283963639964   -8.99794252030310   16.32308865828101
H          -0.90569954014998    2.89869842704502    4.39428794991748
H          -2.22522822863568    0.83550786806934    5.35255830240220
H          -1.96506696668666   -2.95899725263821    7.46969824672181
H          -0.49110105912696   -3.79294193605702    8.03916095213359
H          -1.95834063417461   -4.35143645922168    5.41303831729926
H          -2.01813301616346   -5.36845925817487    6.85717779625238
H          -0.49785375109424   -5.18726596951735    5.97498282186093
H           3.58400387514891   -3.73566145083050    5.83988805801714
H           5.89963175878468   -3.40166340549288    4.64582182350419
H           5.98528993364021   -0.80515588915107    3.02269229022601
H           7.32906301504607    0.27060486040066    1.60558663566308
H          11.74796493793249   -1.97266631002660    1.09655019569554
H          15.21741978386699   -3.96137988861111    3.54227293115346
H          16.53005314506461   -5.94119264376014    3.39574550985608
H          15.57180632085068   -5.75114379441371    1.91120114024548
H          15.04355522970367   -6.87923677009664    3.17260870617474
H           7.86398158889465   -7.32443829970775    4.62247918282323
H           8.87772465122437   -8.48790737178282    5.53449689915419
H           8.75976565167036   -8.58291951475457    3.74962276871306
H          11.98576197532686   -7.80879952425866    4.30806075013052
H          14.45781801716754   -6.47280469258114    5.49875618658272
H          12.53160683890931   -9.71185075070106    3.91344572908346
H          14.05538167151084  -12.73115506581723    7.56542417824588
H          16.01871066153819  -12.73491522061363    8.37978405525853
H          18.81144450437380  -15.28317478262639   12.80367193237815
H          18.52936500763918  -15.51168174530268   11.05438415665205
H          16.38345723026512  -15.58538857681597   13.23348741527819
H          17.05384478611930  -16.99521168744154   12.40500920602753
H          16.09857387352785  -15.81871951437811   11.49758183644848
H          19.00543855749346  -11.56105964357169   15.03545170136914
H          19.08619549437065   -7.61992320992951   14.88449365488296
H          19.84241361508264  -10.02311651717258   16.63031627395109
H          20.09028473189642   -8.24843020770339   17.00643114393489
