117
 SCF done       -213.068214271730          0.000665539609
C          -0.81780146579206    5.10210990993763    3.59901270687422
C          -0.99849168602488    4.76202895605980    2.30194038646533
C          -0.31960139590071    3.56953454273916    1.93134750506808
C           0.38879746615834    3.03405475931518    2.99212127248901
S           0.20878131233483    3.99738235613728    4.42601065140492
C           1.20827096327781    1.88579683935156    2.97863593682374
C           1.26923532044555    0.90688509146818    1.99785382687439
C           0.49070815163375    0.75111684100384    0.76017352382141
O           0.47904690780231   -0.33901614703206    0.21938024406835
N          -0.17476047616532    1.81188040519937    0.15777260414461
C          -0.40546347897344    3.13336268437050    0.53486607837959
O          -0.77759464876754    3.92779222137646   -0.30759620432296
C          -0.66574964716385    1.50041649333987   -1.19268409792244
C           0.41551260788841    1.72606097992657   -2.24070974570446
C           2.18253291627599   -0.11569813623165    2.32695572562256
C           2.82109956839967    0.05893032499354    3.52952296515111
S           2.27929516774643    1.52881050253676    4.29531164550711
C           3.78710856102855   -0.75843642507380    4.18375682044117
C           4.24383385628167   -1.92970283849992    3.68966371753898
C           5.20357715000192   -2.77572387689262    4.31346232902302
S           5.20250086045746   -4.46836635510073    3.86017789559642
C           6.39833175225255   -4.84856692190797    5.05227206531887
N           6.86612863528305   -6.11701309479357    5.17356228839849
C           6.48733985755501   -7.12446386549896    4.21437494249892
C           6.79177826431910   -3.72347350485109    5.77693323609670
C           6.12758258010166   -2.54774954676144    5.30848598345267
C           6.48723079721767   -1.20248652893513    5.81208265931512
O           6.63433916157242   -0.90828510845783    6.97157284626994
O           6.68965545222261   -0.34814960111241    4.79931892087777
C           7.04693202959154    0.97796650408499    5.16428012150774
C           7.76233150090802   -3.69732175559815    6.82876571187648
C           8.15063828153657   -4.75165252841399    7.58500634470026
C           9.15159263462165   -4.73028497502591    8.59402710331779
S           9.12431855918684   -5.98847316314815    9.78893280938506
C          10.49031813123786   -5.35841412641747   10.64710693112052
C          10.96961618811727   -4.20629349250486   10.01347486181755
C          10.22105837318270   -3.85895757953084    8.83440495837678
C          10.65283124999144   -2.77985688771683    8.04292235935692
C          11.72402687199720   -2.01632470876438    8.44019355677494
C          12.14965526093569   -0.93767088037860    7.63512796196315
N          12.47016448090100   -0.06665076502073    6.96182475711303
C          12.40915975499001   -2.30820039645933    9.66136321281780
C          13.48470685013140   -1.49098785368203   10.07238241624497
N          14.36531621484077   -0.84374126864733   10.41877906808478
C          12.04158589641217   -3.39179920002460   10.42062970314219
C          10.99749460421913   -6.04758435492108   11.78100151821815
S          12.69653351014567   -5.94682441710002   12.22436945505307
C          12.49840215259161   -7.14088594155739   13.46189305296688
N          13.52732666816920   -7.45530476028448   14.28044834882221
C          14.87819533131064   -7.04667011649001   13.99779737671450
C          11.18511938014713   -7.59560913998178   13.54709234174456
C          10.35389907366703   -6.96471691469807   12.58050931330690
C           8.90651257734391   -7.27075525297939   12.43989826241073
O           8.01366071637886   -6.48287908634889   12.61728973567820
O           8.72386842367746   -8.54693156003307   12.08249673366934
C           7.37514028399152   -8.97776943266669   11.96942412252778
C          10.75688673446785   -8.57761571260239   14.50482459888556
C           9.50671256310448   -8.68298112612719   14.99547318673005
C           9.07147904681099   -9.71085244378670   15.88420302928625
C           9.72968988014630  -10.82371951862418   16.34248735555408
C           8.96034600978013  -11.64561579629203   17.19164687651224
C           7.68715088866840  -11.13675882588563   17.39797879462117
S           7.45326448346491   -9.65156255518910   16.53120511984121
C           6.68418058427415  -11.66894633333430   18.23160662905632
C           6.63267845029309  -12.94302435252636   18.77730484677592
C           7.53598043729017  -14.08535415414896   18.59704695717317
O           7.12638014807674  -15.19965812338362   18.86321990689547
N           8.86219695676848  -13.92947899558748   18.20079600398264
C           9.60091645126735  -12.83725187867466   17.76090945544868
O          10.81611782971262  -12.90866923954142   17.75470166548138
C           9.66472735612319  -15.15028413362606   18.36344895572021
C          10.19565211410727  -15.27874414966877   19.78455572974350
C           5.46567901219050  -13.13897287187270   19.54997109700687
C           4.64067526909787  -12.05001096862095   19.61222918748303
S           5.29299516718574  -10.73438973927992   18.67571760006182
C           3.39046912417836  -11.87312279187837   20.30284401481597
C           2.79571225382252  -12.80051574970441   21.04907759139821
H          -1.22189911598835    5.94092675699364    4.12941857713643
H          -1.59287369588988    5.31866645666486    1.60095397263785
H          -1.51990743121655    2.14873339609682   -1.38976558751177
H          -0.98158973097863    0.45654663663490   -1.19123935940652
H           0.73217364014819    2.76610085260686   -2.23334986396171
H           0.02258564774993    1.48620531744717   -3.22467786641193
H           1.27260425578700    1.08717903564299   -2.04087919624484
H           2.34052756691709   -0.95381719548085    1.67409609759477
H           4.13920631607726   -0.40106588565724    5.14063414913485
H           3.82518539457608   -2.31143043802350    2.76863063014897
H           7.80368692802501   -6.18812227555900    5.54687092034332
H           5.39979303858758   -7.20125967153543    4.19017875168963
H           6.90268465662419   -8.08044968039133    4.52359071982399
H           6.83648614476184   -6.88880004126378    3.20254500415222
H           7.11399289844104    1.53831926294222    4.23581284941252
H           8.00659630307061    0.98436003680222    5.68543193054925
H           6.28842680334967    1.40985378188908    5.82072781153264
H           8.14257981472753   -2.71645716897021    7.06689439661766
H           7.61508499728053   -5.68895634172836    7.50973173346743
H          10.16588407979013   -2.55615745510247    7.10784417359760
H          12.57715372239963   -3.60670291400476   11.33196937607232
H          13.40098166155703   -8.26625517082323   14.86672299250418
H          14.89459948313076   -5.97303339062956   13.80402486775239
H          15.29116600681058   -7.55958175630173   13.12225288727859
H          15.50182218944490   -7.25865142263763   14.86266638915605
H           6.78992621868537   -8.24455985366235   11.41084954695385
H           6.93636342551213   -9.10003925943611   12.96233007479307
H           7.40114170908401   -9.93117032088333   11.44848480889041
H          11.51172570778290   -9.27359304683107   14.84780608686335
H           8.76235453212642   -7.94377593327328   14.73591363323040
H          10.74086134616308  -11.07871369054899   16.08504352171099
H          10.49301804453196  -15.09579641958454   17.65648563265133
H           9.02132857862552  -15.99676877655841   18.12044971712794
H          10.82802735937260  -14.42793565235431   20.02613581709171
H          10.78278333000783  -16.18858717976151   19.87190433385725
H           9.37050943619685  -15.32594769376895   20.49135131022310
H           5.26657591948574  -14.07628568994018   20.03537134450859
H           2.93287337732916  -10.90014466498427   20.18008042302117
H           3.21894445904851  -13.77953318996484   21.18998053618644
H           1.85815470827909  -12.60504679586969   21.53830738514626
