99
 SCF done       -187.796956007408          0.000623116416
C          -2.35799291188544    0.15219140579180   -3.94907894127358
S          -2.34453212625785    1.86281531976711   -3.92143465045848
C          -0.75346321705414    1.88898565924351   -3.20029293604345
C          -0.28608714709005    0.60019656454618   -3.01424654724449
C          -1.20955611978445   -0.38409108044121   -3.44759392162883
C          -0.85526474404140   -1.83543441799293   -3.38577379181187
C           0.34055405886895   -2.09755025312814   -4.28837294317312
S           1.68322954774272   -0.88541180905349   -3.95826126564095
O           2.84462389083266   -1.59710838841479   -3.50441872735381
O           1.81824304873216   -0.04942524933014   -5.11784060441000
C           1.05593034772764    0.16888756473719   -2.58466063777420
C          -0.15442520777174    3.14051903650287   -2.88183540770510
C           0.86153530262366    3.41664782150348   -1.99816616867635
C           1.15739822769680    4.80836468092096   -2.04898363102766
C           0.20514167174931    5.40004098465857   -3.00875967842645
C          -0.57878936559636    4.39936663109138   -3.48385846486808
C           0.04053963508515    6.76189525217067   -3.28842815837411
N          -0.16009337181103    7.87370349981878   -3.49596403054919
C           2.14861696467286    5.48111067256433   -1.37267458447650
C           2.57872398093244    6.81902727544639   -1.58651538782132
C           3.59946644711595    7.11555118561458   -0.70641555015277
C           3.83197402098244    5.93986791605863    0.11835299800006
C           2.99547911338206    4.94924792255768   -0.29251968836911
C           2.93645375684389    3.66191593741093    0.25072642124754
N           2.90131064172119    2.60653566919271    0.70380337222760
C           4.30059575005912    8.35311542923719   -0.71547588001703
N           5.03192416980428    8.90879689001777    0.31013482388489
C           5.11310832133764    8.47095851505319    1.68541353305827
C           3.75544611357876    8.45603069383982    2.37907597698180
C           5.58245198174031   10.15036537208428   -0.05557746500015
O           6.26484839151410   10.82123231370931    0.70186090142066
C           5.14049763092040   10.36258835589970   -1.41038887394850
C           4.36601169205592    9.23388074745473   -1.79165638630736
C           3.95302217847083    9.42121022479512   -3.16483336517772
O           3.30824323523973    8.74315569020422   -3.93279605959278
N           4.49654393465826   10.68084678562067   -3.51587402282424
C           4.16539962202898   11.30880173853107   -4.77057723052033
C           3.06513903588002   12.35163033091524   -4.59552988705318
C           5.15482785805174   11.26398816462208   -2.47174997585453
C           5.75009391927425   12.56838553923351   -2.56370021102074
C           5.85033037956789   13.44771629380787   -1.54976922695230
C           5.24805587624769   13.27562495922664   -0.25089296099532
C           5.93388804458270   13.67580958007750    0.90901678597603
C           5.49498297970548   13.28166819225413    2.22687726199826
N           6.17918081607266   13.69313231669785    3.30607850534808
C           7.26264010524294   14.40786253680732    3.14399295448872
C           7.72454086075493   14.76065270203444    1.82935973683582
N           7.05742194479949   14.40199082796232    0.76597126819358
C           8.90187440432756   15.53816115080906    1.68393379851512
N           9.85649014866645   16.16625527179385    1.60907903531548
C           7.97459905354649   14.83800309642072    4.29106080408277
N           8.57609913122382   15.18087943067460    5.20372045174115
C           4.35400391208277   12.47441914752716    2.41709888589380
C           3.57265696511760   12.24834707807371    1.27032764854524
C           4.00628452056055   12.65586332302559   -0.04418534219752
N           3.11494236178305   12.31210972697408   -0.98133572655010
S           1.89667954114133   11.53693195431232   -0.29463452073384
N           2.40967204343612   11.58873400504764    1.22010083655745
C           3.98105341502558   11.90968402984228    3.68304931412091
S           2.27943210509138   11.77408496107572    4.04993414090624
C           2.62034476985364   11.12991604167106    5.59371389959154
C           3.96049093721579   10.99675591299723    5.81924974553255
C           4.74988098818021   11.42244609618262    4.72066781932595
C           6.23455118911537   11.23628410692003    4.76014447566774
C           6.63255214221851    9.79605723347035    5.06941610494478
S           5.53926981536172    8.98515648839552    6.29138083124908
O           4.61654616967428    8.14721659162734    5.57138498604687
O           6.34277610959375    8.36731157079701    7.30769971093626
C           4.59444263534624   10.38361488952276    7.00220130218697
H          -3.21313973780623   -0.36548132038521   -4.33650903793668
H          -1.70283629851956   -2.44876418223131   -3.69854462156125
H          -0.60321137920062   -2.10705677160095   -2.35696703837768
H           0.08950605030898   -1.96118551252738   -5.33660127144130
H           0.77593987808883   -3.07868836937856   -4.12612924394185
H           1.77011342332742    0.97841707036115   -2.48435022539675
H           1.05805649770074   -0.45400184057552   -1.69363528340679
H           1.36351595176739    2.72309333551890   -1.35515115889656
H          -1.38026753203748    4.49131497945757   -4.19359503566120
H           2.18961229907737    7.47272965755059   -2.34090994906346
H           4.56904974962660    5.84372001182650    0.89206846019078
H           5.76807151664499    9.20409461143886    2.16577335907529
H           5.59632269640686    7.49249404860608    1.74555760416905
H           3.27103672239276    9.42606020368232    2.28253178423313
H           3.89013135931272    8.23277516577854    3.43547991635891
H           3.10207303477816    7.70248814959010    1.94528472001707
H           3.81968150028907   10.50705644073931   -5.42870502812439
H           5.06306917072069   11.76085710031989   -5.20161655584528
H           2.15527761062949   11.87327569476055   -4.24240178144764
H           2.85940544767247   12.83493926589257   -5.54627530379539
H           3.36470347625562   13.10435977868064   -3.86968668519917
H           6.16438705666747   12.83412065568520   -3.52744719500786
H           6.44985046701889   14.33904369376803   -1.67142192520891
H           1.81824503597109   10.87574274137440    6.25764213711031
H           6.64899619155346   11.90745634080613    5.51818788334473
H           6.67414382782189   11.51284328455419    3.80216098877168
H           7.63604350637365    9.73800422157085    5.48022457673191
H           6.55902398909568    9.16436619095759    4.18901212999025
H           5.32518173847866   11.02299455500906    7.49090831943627
H           3.88070310263148    9.99290469133891    7.72039998231620
