100
 SCF done       -185.454559551639          0.000534444970
C          -0.64250129155246    0.77792206692696    1.35226429081511
S          -0.03095293298262    2.22829713223222    2.03334137815514
C           1.38383438443294    1.39577951477167    2.63674530805440
C           1.34677479235859    0.06633060705089    2.29860573498416
C           0.17527042175206   -0.28620618994639    1.57861847366361
C          -0.07148091645379   -1.71528782589003    1.21560820020661
C          -0.20500250195838   -2.54489593166703    2.48731280464377
S           1.06057927800639   -2.06168545957007    3.72995208029429
O           0.42038877709365   -1.21243534036517    4.70112091161552
O           1.71832084734519   -3.24315265659643    4.21012001446630
C           2.23313820655001   -0.99705703262715    2.80163172896341
C           2.37991604756664    2.12860751815746    3.35875616126873
C           3.73954072554314    2.23060419699292    3.12408194627052
N           4.49571095210760    1.59402485802398    2.12884686860419
O           5.65741558460025    1.94244219227298    1.99889840560040
O           3.95603854427760    0.74536976197702    1.43282887632993
C           4.29585557438030    3.23698017142037    4.00091296867298
C           3.29348292885744    3.78075659243140    4.72900626744675
C           2.06369432122070    3.10173097724256    4.39863312220881
C           0.85449342430742    3.18152592181594    5.06285145739176
C          -0.05701519130400    2.10646752657084    5.29188373647272
C          -0.97304093906853    2.50709886447523    6.22195797061511
C          -0.73743592368454    3.87834928911192    6.55582586698473
N          -1.59128727312924    4.62754807283208    7.38355059518140
O          -1.43930312511143    5.83769393877068    7.43546903668616
O          -2.45038943058499    4.01846947641994    7.99808674696378
C           0.37488793946838    4.33768924234549    5.85096868435493
C           0.87156846721733    5.64819389230429    5.78060140424095
C           1.54199237892075    6.14704025598862    4.69254973042032
C           2.10926206457055    7.42938841688486    4.65571200275514
N           2.61871618953894    8.01457427248301    3.51718506049840
C           2.59357307299271    7.45665816674150    2.18604705587674
C           1.20293672393453    7.52931014382970    1.56137052847351
C           3.13701025472182    9.29105013450559    3.76516900237818
O           3.62822552244711   10.00049730326467    2.90853553008854
C           2.94727911482798    9.48592499841909    5.18932730462732
C           2.31941409537816    8.33681868722360    5.70425531760375
C           2.18509011531495    8.49913896800535    7.13827381330094
O           1.75850506627532    7.77056401847914    8.00471784752319
N           2.73289735201982    9.77483007537347    7.39171221614307
C           2.72507852735227   10.33177683097859    8.72297648043380
C           1.59122160382291   11.33685999206780    8.90862439261723
C           3.19407589229858   10.37493927494253    6.24868120671132
C           3.82070404307965   11.63893959006374    6.21696561096785
C           4.27402484220682   12.19330642323799    5.05727834233352
C           4.92738169649141   13.44252945478868    4.95727054854949
S           5.44225189684020   14.00170676617026    3.38251706197676
C           6.09746916877103   15.45744367730267    4.04627599098390
C           5.91770360014978   15.48719718309960    5.43506594605381
C           5.26131000733721   14.35832502014124    5.93816750472543
C           6.37218142426465   16.55500961438922    6.22769502008317
N           6.75074556246484   17.42991035430753    6.86550932438667
C           6.72400605848281   16.47095416850837    3.27551016246304
C           6.86806482335853   16.40873578708072    1.93180095516894
C           7.47277151326355   17.38211690980039    1.08427409083676
S           6.99411456615198   17.36700126663733   -0.59949448661822
C           7.97764628666372   18.71968738002751   -0.94476339483287
C           8.65288499551274   19.16258978471024    0.15626873657114
C           8.38481787758283   18.39246829209453    1.31751451245321
C           9.19291708803382   18.64988253937015    2.55080855573433
C          10.67112560217361   18.49440834042881    2.22246251924984
S          11.18296515598269   19.61575445888166    0.86472041132921
O          11.93661075915669   20.70532257672528    1.41904653262258
O          11.79977513904561   18.82356130583233   -0.16104607855021
C           9.60497168117663   20.28813530967385    0.20593225058289
H          -1.57486188480967    0.79576693593017    0.82350826906606
H           0.76987275264301   -2.08246417265694    0.62201651008435
H          -0.97649490875048   -1.80760483778594    0.61201244752547
H          -0.06501998551181   -3.60638604946158    2.30878596601814
H          -1.15607105376560   -2.36793820559092    2.98255633999016
H           2.69505880454541   -1.59202281991204    2.01989985348202
H           2.98215514249695   -0.64490679656704    3.50325735871666
H           5.34147396094362    3.47564918250998    4.03228070714271
H           3.39033728764199    4.51077377299446    5.50821223056494
H           0.05666019128086    1.10520089044890    4.91892631959053
H          -1.75913947455706    1.91634727946405    6.65298982801797
H           0.63814490884626    6.30602514007550    6.61026005051547
H           1.60884502531104    5.54453044673446    3.79731289528795
H           2.95280404290418    6.42377398727820    2.21797976271014
H           3.29419341919974    8.05427922995738    1.59640817117831
H           0.47813632030672    6.97471686518256    2.15303374564980
H           1.22960091232557    7.11030360300157    0.55956161617435
H           0.87776833023821    8.56473075843247    1.49648950714645
H           3.69520289673889   10.79012323878855    8.93467605881909
H           2.57943587647895    9.48710261297499    9.40197983322929
H           1.68368871122963   12.16637795479146    8.21067488976438
H           1.60937066093552   11.72726645543567    9.92215453563075
H           0.63394898007829   10.84948993007968    8.74217757213249
H           3.94313613403387   12.16433895953220    7.15237627689891
H           4.13798713674342   11.65084090322438    4.13027907077478
H           5.04555706893239   14.22521655177858    6.98292705676985
H           7.05822027522212   17.33196972838439    3.83674546295487
H           6.43884130147918   15.55807131833629    1.41510839779033
H           8.00574567366531   19.12174885487538   -1.93781957045340
H           8.93708319856422   17.95137596957145    3.34649150928520
H           9.00567097198933   19.66406471522976    2.91477302201000
H          10.89905829189007   17.49140634803313    1.87244572976155
H          11.30242827965310   18.75297512931078    3.06744231786052
H           9.81882036422318   20.70900068971482   -0.77171293946816
H           9.30855693457745   21.07005630971589    0.90138054972898
