100
 SCF done       -196.012032834628          0.000549106553
C          -1.62624232851315    1.29726382742487   -4.84778081282816
S          -0.76418664069377    0.21215523373277   -3.87209227092713
C          -2.04472797680947   -0.95698304706412   -3.90905258962652
C          -3.06828746330116   -0.53499074770182   -4.77257802269998
C          -2.83171261553065    0.77857103918052   -5.28966398115310
C          -3.78762542696643    1.37935301900060   -6.15185393111373
C          -3.56449763956736    2.68756022714221   -6.63363987161923
N          -3.37691216555871    3.75007956027240   -7.02066201001439
C          -4.91487331006918    0.67153311642030   -6.51807730792680
C          -5.09017039572845   -0.65124260460879   -6.10388555313228
C          -4.18085622896382   -1.26585292950291   -5.25991911541029
C          -4.30958279583169   -2.64598861619014   -5.01621556462761
N          -4.40204769533122   -3.78694045866766   -4.92312969244992
C          -2.04075700723116   -2.09432464136959   -3.05471913963587
C          -0.98860214532587   -2.96080357347625   -2.76700857169127
N           0.32469642750517   -2.88678490102996   -3.22453921466669
O           1.02147418691341   -3.88166909198732   -3.13663128278231
O           0.71930953525716   -1.81994588223589   -3.69394291695421
C          -1.47168910434093   -4.03880706512883   -1.95522956774946
C          -2.79495444083597   -3.84075066502756   -1.71379625918290
C          -3.20967331253745   -2.62416480322580   -2.34275683719980
C          -4.39064338271096   -1.92996440849519   -2.08546598376961
C          -4.53326198040438   -0.51885020638383   -2.08429714565842
C          -5.73283068184472   -0.18072288424819   -1.50416784617245
C          -6.41906583575332   -1.36167920473726   -1.14909994786731
N          -7.70508560206923   -1.35175056178972   -0.58715211328252
O          -8.25731496420475   -2.41672169961852   -0.35313170108227
O          -8.20369035599235   -0.26215956573308   -0.35975855054106
C          -5.63820395482100   -2.48272074279486   -1.52423311058323
C          -6.05509966649665   -3.80737592160922   -1.47317458670991
C          -5.54459702834400   -4.84465063655694   -2.23883474878324
C          -5.90376287883373   -6.17075928384143   -2.09959041698899
S          -6.87397738120982   -6.75941090138922   -0.77765831502156
C          -6.75935909745468   -8.41246801428993   -1.32049628640222
C          -5.97925571699515   -8.50135238626738   -2.51510415487551
C          -5.49678874432432   -7.24631550440021   -2.95164430764136
C          -4.71942898194356   -7.15050886166386   -4.10586280371227
C          -4.41046420279825   -8.29452499542534   -4.81961031281913
C          -3.57500407730452   -8.22481782859846   -6.05536240971530
C          -4.88162283384241   -9.53757369250825   -4.36972113524832
C          -5.65538427592424   -9.65235045367824   -3.23847354730993
C          -7.31640026692424   -9.47007537732647   -0.62877745178034
C          -8.03330802341004   -9.33836909315778    0.55268157063739
C          -8.50875561178444  -10.37557050324012    1.34114789103299
C          -9.51754029464033  -10.26068132477647    2.33788648511277
N         -10.11909977289203   -9.09157624667507    2.83028585669317
O         -11.00783637775513   -9.22775630802737    3.65375104001830
O          -9.72469103733741   -8.00792274467536    2.42564992301833
C          -9.89108152916612  -11.54680336211055    2.76038892952066
C          -9.14395478048891  -12.48177448422390    2.06663085445574
C          -8.24007286549440  -11.81617002047927    1.21474209995016
C          -7.16695664903998  -12.41433809880748    0.53741109554447
C          -5.87057970111354  -11.87748953474166    0.39512776123402
C          -5.05430806807857  -12.83406827607874   -0.16130204536693
C          -5.81730004339248  -13.99433286328901   -0.44833252476765
N          -5.19219000818566  -15.14473667113431   -0.95542851409314
O          -4.05589865715142  -15.01551757093007   -1.37823024754623
O          -5.78207124113981  -16.21523336658719   -0.91751297805448
C          -7.15255691295642  -13.76839975474134   -0.04720671667631
C          -8.34713517671439  -14.45760275532773   -0.28597549457284
C          -8.52939421594577  -15.59783208185743   -1.03071507972232
C          -9.75320552186055  -16.26810945686165   -1.12563827990795
S         -11.11378741814339  -15.86766886178240   -0.10162079733549
C         -12.03265846885874  -17.17678871646012   -0.67018049668765
C         -11.36459609000629  -17.91474052070792   -1.63035274365294
C         -10.06457340588066  -17.39127478539622   -1.91950084897992
C          -9.29563538564063  -18.00097099076603   -2.93870014838635
C          -8.08424736121896  -17.44633767420346   -3.41522050082401
N          -7.14654173182411  -17.00031544142343   -3.90055395446932
C          -9.77912070823475  -19.13429204598055   -3.57384067749130
C         -11.02476058375668  -19.67790286291562   -3.25034350526205
C         -11.83151260441119  -19.07614804876546   -2.30655930598598
C         -13.11042333471215  -19.58981483101856   -2.00334010173222
N         -14.15167052614733  -19.99821389080002   -1.75162027406403
H          -1.21664543543507    2.25719112121822   -5.09529196210670
H          -5.64779282943560    1.12955473863510   -7.16445070484796
H          -5.93746874146957   -1.21356909736190   -6.46621976886254
H          -0.84858376101360   -4.83565094490426   -1.59749840874807
H          -3.41052690686055   -4.43178814977581   -1.06581798775778
H          -3.77438637245028    0.18017740045446   -2.37637948150081
H          -6.10914187213567    0.80956496992976   -1.32859965816446
H          -6.91244057514066   -4.01433593094255   -0.84108089440636
H          -4.86109553659736   -4.60441014328746   -3.04255054484371
H          -4.36604050521065   -6.19026323180654   -4.44539138532473
H          -3.35808420807919   -7.19445366992131   -6.32214655192728
H          -4.08672576405104   -8.70633938164690   -6.88716519600167
H          -2.63364107093246   -8.75100237363217   -5.90024141572504
H          -4.62691563538816  -10.42458158279500   -4.93026921280608
H          -6.00390331801828  -10.62070804520637   -2.91521456410749
H          -7.17947245410722  -10.45519587353009   -1.05072307924033
H          -8.29296119378959   -8.33588373664957    0.87568593315788
H         -10.63091220595632  -11.74491479811714    3.51304277114887
H          -9.15721635924658  -13.53879413327660    2.25302848562949
H          -5.55721678681927  -10.92042203458776    0.76592559246400
H          -3.99848301075576  -12.75759332786811   -0.34135002798317
H          -9.23595530764688  -14.00609477071549    0.13884012312141
H          -7.69226704306416  -16.04592330312787   -1.54445350575059
H         -13.01563469705490  -17.36076515600632   -0.28251824603372
H          -9.18282854709943  -19.59702645931482   -4.34565453970144
H         -11.36883531758648  -20.56496229859958   -3.76011255407288
