102
 SCF done       -193.820275737885          0.000253023597
C          -2.82747332507748   -0.52437447751076   -8.58970835772836
S          -3.52217176177522   -1.70730051426840   -7.58859969341305
C          -5.06711448707588   -0.90432014045870   -7.57434493779759
C          -5.00414322097004    0.27882460888702   -8.30786132581284
C          -3.71679386710879    0.48555187329800   -8.90029171815011
C          -3.49034720507092    1.63782550146685   -9.70458899586976
C          -2.22489624976889    1.83303638444246  -10.29802356248039
N          -1.19342811735289    1.98812061523133  -10.77406428565743
C          -4.50808112440901    2.55032078215667   -9.88300270755693
C          -5.74426496855255    2.38277652708677   -9.24673292432821
C          -5.99983112737539    1.28175333522654   -8.45514241940585
C          -7.21380207584500    1.19643965594196   -7.74001800269126
N          -8.17554514549666    1.15520286808238   -7.11689521709528
C          -6.17412544898229   -1.53363619675009   -6.93040416068504
C          -7.42718475631058   -1.82867371187045   -7.43809360570490
N          -7.92663369289415   -1.56829693753957   -8.72263811416133
O          -9.00328372360736   -2.05337872981103   -9.01761632772362
O          -7.24576579759436   -0.89805857997231   -9.48805791755220
C          -8.14826012619201   -2.62937317252373   -6.47889829135772
C          -7.34416595866887   -2.86764694407342   -5.41435755758608
C          -6.09682181316291   -2.18779507648223   -5.61649997040374
C          -5.08286324031574   -2.00070432554203   -4.69676595901413
C          -4.21833021436520   -0.86796114559548   -4.60686455842683
C          -3.52047544356301   -0.94522735606510   -3.44006192508835
C          -3.86943599467315   -2.15187086917165   -2.75485891303828
N          -3.23317041620747   -2.47432176611277   -1.54549193236598
O          -3.70258815158111   -3.34591616767951   -0.82667654013950
O          -2.23283632541185   -1.83850312548413   -1.25980881429609
C          -4.81861253619636   -2.85119059336818   -3.51762766902850
C          -5.31927156445478   -4.16313640536771   -3.47828109009775
C          -5.32721253140168   -5.04436301481451   -2.42548047972234
C          -5.87726560848956   -6.32858370353651   -2.54913368771659
N          -5.97708224630576   -7.21774758660898   -1.50872935986000
C          -5.56557841667286   -6.98716679770682   -0.14221366107808
C          -6.58719489610507   -6.15138025973117    0.62316680518937
C          -6.60141335476996   -8.41355582328879   -1.88880707106554
O          -6.80546815232392   -9.34087914935372   -1.13503239638048
C          -6.89076825220157   -8.23382625633274   -3.30253031072056
C          -6.43520980679930   -6.96248590371470   -3.68024677293863
C          -6.70166721932413   -6.79354272023447   -5.09686048747015
O          -6.48008704186214   -5.87625003908770   -5.86206852959135
N          -7.31032359434843   -7.99660380676704   -5.48236324778357
C          -7.77722854857864   -8.19264923263085   -6.83484419574391
C          -9.27867335112076   -7.94685992989229   -6.95746866843730
C          -7.44405608250558   -8.87149562206753   -4.43003033512033
C          -8.02884038086070  -10.14400837853920   -4.53171398304470
C          -8.19271161896068  -10.97127196321168   -3.45197664131357
C          -8.79022743858947  -12.24520539452848   -3.50015867367567
C          -9.01876104425030  -13.06005346251486   -2.40028907995609
C          -9.63809463624563  -14.26204639914278   -2.82609584434800
C          -9.78576766722858  -14.14952942082119   -4.29000915906157
C          -9.28437378249220  -12.94799426150790   -4.67643914176220
C         -10.36019672076014  -15.08898686708719   -5.15475559424108
N         -10.84081055066759  -15.82507650269943   -5.89433749027680
C         -10.02064621311207  -15.33992152069306   -2.05552197862389
C         -10.58710997572923  -16.55896417713447   -2.51230891254837
C         -10.78769592236157  -17.39372450175690   -1.43611813692249
C         -10.38963314345287  -16.68092969432731   -0.23164049187922
C          -9.90714205729929  -15.46263676612654   -0.58914896376682
C          -9.41749713094969  -14.50056588238528    0.30122690557326
N          -9.03237966309353  -13.73359850796499    1.06431527568617
C         -11.32760029879474  -18.70659815961336   -1.44915235820808
S         -12.29092922188958  -19.25759137696205   -0.11308502562724
C         -12.72352679318210  -20.69336492322661   -0.91169434961410
C         -12.13475257062589  -20.79551437904743   -2.15557371303726
C         -11.30068351115531  -19.66930358222327   -2.46451902411159
C         -10.51039555586909  -19.71594805145160   -3.64478196899352
C          -9.46082045847409  -18.80306403939483   -3.89821445902583
N          -8.54221376017263  -18.15345535152871   -4.11978590465825
C         -10.66795451784911  -20.76719827487343   -4.52914977674649
C         -11.56094073288395  -21.81426935115227   -4.27322627148699
C         -12.26866917975586  -21.85978255477784   -3.09223828541158
C         -13.11339615021231  -22.94838145066904   -2.78738227347855
N         -13.80274920864460  -23.82827851125255   -2.53247565046628
H          -1.81127687126294   -0.61721245448249   -8.91957468113229
H          -4.34280590639280    3.41918558821074  -10.50219489528142
H          -6.50933440825075    3.13439158324350   -9.36957529648478
H          -9.15789781484076   -2.95801434762839   -6.63321665478529
H          -7.62291188487455   -3.37923104251005   -4.51487775097621
H          -4.22206561761647   -0.03461691403170   -5.28219797883370
H          -2.82033067159684   -0.23018357652305   -3.05058378923569
H          -5.75443590916438   -4.50183093606037   -4.40918210342151
H          -4.93239433905909   -4.74591071387682   -1.46722988828547
H          -4.58786025960847   -6.50017351315855   -0.13498332684427
H          -5.47789944305814   -7.97449507770628    0.31899235130748
H          -6.69958130460741   -5.16740629129412    0.17448518429066
H          -6.25677068532896   -6.02731566433571    1.65005046718544
H          -7.55361693279901   -6.65004601694380    0.62622545875246
H          -7.51548750321184   -9.20039823315626   -7.16817481828261
H          -7.23706199291467   -7.46800210375492   -7.45014340492517
H          -9.84093618909506   -8.62196717291539   -6.31588217448035
H          -9.59210978660680   -8.09831322937179   -7.98638113963552
H          -9.51157606379197   -6.92387231559043   -6.67278415609870
H          -8.36899679588410  -10.46215374003225   -5.50633907968681
H          -7.85656054544232  -10.63806052855603   -2.47840962044879
H          -8.76194771353319  -12.81959728469849   -1.38694835569559
H          -9.25189160729839  -12.58103326478350   -5.68529070238655
H         -10.84566237291093  -16.76315437468933   -3.53087451794263
H         -10.44764870707415  -17.08460561630255    0.76261832240346
H         -13.38826088787032  -21.39565408450721   -0.44846745186653
H         -10.06919386313548  -20.79022987462184   -5.42711212835965
H         -11.66520703216400  -22.61310116272010   -4.99162700458758
