102
 SCF done       -199.143483650727          0.000556901982
C           0.11307508450517   -0.70749542416474   -0.54654725883623
S           1.23203524119064    0.32368524782207   -1.32023125363625
C           1.30310867319551    1.37255840462030    0.06392422712097
C           0.48465087391824    0.91344262219496    1.06957926352414
C          -0.20459590867157   -0.27469511798377    0.70661817067595
C          -1.25263624107172   -0.92371349427367    1.56602904889167
N          -2.52113369695381   -0.80802340551534    0.77283312936836
O          -3.27139103164977    0.09562603688720    1.03601250262248
O          -2.67538963059165   -1.61901438262299   -0.10527476752799
C          -1.40621639692437   -0.27275535617291    2.93665867480639
C          -1.15686180128083    1.23477377910964    2.90429205418346
C           0.25331636244950    1.53287426957811    2.40695891185470
N           1.25446220964543    0.99391977111931    3.39930350037285
O           0.92146347680064    0.94556573710467    4.55301353803486
O           2.32778596733217    0.66026603781054    2.96229771145720
C           2.09904258255894    2.58332588411320   -0.01666296688967
C           2.78488836809484    3.10051007369362    1.07485251195147
C           3.51307326056680    4.27796307541247    0.97511645958834
N           4.12467198879916    4.71758735804875    2.20463810957496
O           3.54388856115004    4.42429778728279    3.22905198889848
O           5.16351902285152    5.34325280188028    2.16216425454574
C           3.59054742994130    5.00083310238131   -0.23284356540032
C           2.91234467753577    4.44280097135312   -1.32911518170907
C           2.19541458495579    3.27568750991304   -1.23144757825027
C           4.31346389663232    6.24498355314333   -0.35126137037019
C           4.08123674242244    7.15807277395110   -1.32054611996697
C           4.71411116265678    8.41150549370200   -1.54853347845047
N           5.73377324297699    9.04436858050753   -0.87597418110495
C           6.51407273722530    8.57481970259113    0.24547668702064
C           7.55497316541056    7.54100513214483   -0.17589397440470
C           6.04389183066160   10.28970246082180   -1.46128524267787
O           6.91679682687956   11.02560373188915   -1.04391847014823
C           5.12267003682927   10.41872726346886   -2.56707155552612
C           4.32721256870139    9.25127579845674   -2.58945856368997
C           3.40045757060566    9.35169605885165   -3.69623732234666
O           2.54509943616171    8.59625912850972   -4.10844769871394
N           3.70335912436251   10.59550896064392   -4.28101683273221
C           2.94977971457609   11.10205058428539   -5.40351551120795
C           1.90249961582773   12.12350190156773   -4.96879602027995
C           4.72125363775678   11.24202238474971   -3.61989042714146
C           5.23181434798989   12.50254166950123   -4.01365390095355
C           6.23574514912883   13.11983298819891   -3.33720075753177
C           6.78313705063052   14.36857139409388   -3.71906475993547
C           6.50989723077478   15.23072564582124   -4.76209268543587
C           5.58282807753064   15.31095433843922   -5.89986616226598
O           4.71625213113120   14.55246736486706   -6.26942994763466
N           5.89531803397889   16.50372100637923   -6.53621978035380
C           5.20449977164839   16.97089806077181   -7.71238639512610
C           6.93206884362008   17.20516640449677   -5.93566789233703
O           7.36465929954438   18.26186796682826   -6.33228310849295
C           7.32919792444389   16.38499490732304   -4.78716099569155
C           8.26160447216641   16.45914474922872   -3.77309101432426
S           8.08567199019003   15.03878366694030   -2.75940379527153
C           9.22251176256006   17.48180045401062   -3.53260651264511
S           9.28173631898560   18.87078120649395   -4.58556464378600
C          10.55234590251181   19.55046317892339   -3.67831097311776
C          10.92603517720767   18.77128523848148   -2.61888327131769
C          10.18197032861936   17.57457219348495   -2.53449058063773
C          10.41957317701820   16.59810320188431   -1.43584943975159
N           9.36743556582639   16.76942547480304   -0.36600804119684
O           9.55012680471628   16.18036673139050    0.66589717613387
O           8.42167534528690   17.46999025770458   -0.62074633231964
C          11.79816376782807   16.76651471593514   -0.80208828897173
C          12.06585988293603   18.22576396435654   -0.44236313708793
C          12.02908792029601   19.13171602035898   -1.66650125199554
N          13.30275471868275   19.04973035680242   -2.45616973868047
O          14.02532548851222   18.10420055072859   -2.27528618520367
O          13.49379315170905   19.94164613073086   -3.24337876599381
H          -0.27442299126474   -1.56600222279533   -1.05890594596091
H          -1.05990190527106   -1.99831557146530    1.64847857882888
H          -0.71127236866148   -0.74645337471012    3.63177556081733
H          -2.41603873400447   -0.45641893355379    3.30673606086488
H          -1.28238801582728    1.63960125596133    3.90843561657767
H          -1.87861205361136    1.71688432993945    2.24453237911154
H           0.44029684681466    2.61296532500878    2.37601276149541
H           2.82265074350552    2.56278725392198    2.00820566009464
H           2.96992298110102    4.93900182564842   -2.28419823109048
H           1.68998857473112    2.88490048388377   -2.10191328050927
H           5.05738229899571    6.42834714635498    0.40425313703567
H           3.29724806849390    6.98010241715278   -2.04617920316253
H           5.85424235547890    8.18123773522068    1.02122543000390
H           7.02266972243933    9.45896523684562    0.64151495409864
H           7.09032669634660    6.69489844760067   -0.67647124030480
H           8.08200762181582    7.17847279958872    0.70162271480621
H           8.27345614328995    7.99344457198249   -0.85518137835456
H           2.45612324650993   10.23459103383376   -5.85040448619592
H           3.63067673852650   11.54265698231391   -6.13577551474739
H           1.22296697683640   11.67894524570179   -4.24542085208844
H           1.33008985147734   12.44791389415987   -5.83284198643728
H           2.37431681959363   12.99386595697931   -4.51955074870958
H           4.80579362151247   12.97441124197303   -4.88662268494631
H           6.66353371902262   12.65487191703406   -2.45802823782812
H           5.28476395594962   16.23144439048299   -8.50982814391738
H           5.66892361446127   17.90590225690329   -8.01984884291570
H           4.14966281681866   17.13393043240573   -7.48764126762831
H          10.98119350744227   20.49068369603314   -3.96518375951173
H          10.30605342873400   15.56485992713477   -1.78186038529532
H          12.55969747288534   16.41357299350866   -1.49745325162872
H          11.84642904146664   16.15276936019887    0.09832471753630
H          13.04365282677390   18.30266434493729    0.03532234667185
H          11.31583771969309   18.57735630357508    0.26893121307449
H          11.93713405462634   20.18522465858629   -1.38286191167218
