103
 SCF done       -211.889206839506          0.000915658684
C           9.17718372279947    2.61493100225716    2.08300089107292
S           8.95207934151309    2.46491102714545    3.77516529841640
C           8.23515518024621    4.03765481519576    3.85915906281436
C           8.22416565848465    4.64412845793044    2.63181663116431
C           8.74381767376342    3.81394754047696    1.60624453248016
C           8.78192791512806    4.24324750004323    0.17144438761108
N          10.22219791726780    4.45058298408486   -0.19923783455376
O          10.59776671001312    5.57320734192568   -0.41631241410901
O          10.90127221387994    3.45725336304526   -0.24293001879634
C           7.94546462763245    5.49591042676767   -0.06150149503068
C           8.18230708895900    6.54891360061418    1.01776817770625
C           7.76426372879459    6.04782060202376    2.40637128046467
N           6.29250428602589    6.12339485335774    2.50868075667441
O           5.83407173055629    7.02597092698661    3.18618696044239
O           5.62466403240149    5.31429614847427    1.91866206047414
C           7.69721628619793    4.60799345033630    5.07981447576655
C           8.39285542203545    5.28795669104046    6.05536755083141
N           9.78649526997977    5.47221137627738    6.09079539666851
O          10.26038057742857    6.03998129176994    7.05695691490066
O          10.43497494671603    5.06153150598359    5.14037753785043
C           7.46553454784281    5.82797417867177    7.01932135360228
C           6.21124754409121    5.53398643462980    6.60314883126533
C           6.28773818019429    4.74700187309870    5.39398610682414
C           5.23750328481658    4.16041652886615    4.70840517853523
C           5.28194548292572    2.99651073556597    3.90340076963750
C           3.99848349732332    2.60390671862037    3.63863372572513
C           3.07871321066381    3.53601643055067    4.20430677493650
N           1.69962396957057    3.36305143278539    4.05903874810707
O           0.93670688677852    4.03294696551752    4.74586836241888
O           1.31999664139426    2.51973308421020    3.26255316076587
C           3.80954448852916    4.57254288833541    4.81102680236866
C           3.49743061862193    5.88961875377867    5.13994257687197
C           2.25532933525309    6.47184435556530    5.31585048688850
C           2.08742344410459    7.84817572388192    5.42605856882085
S           0.59451909199331    8.54303141926276    6.03108563209905
C           1.17355552158172   10.18381550548222    5.94823028763678
C           2.47221292165241   10.20480218194838    5.40207620098516
C           2.96515429286880    8.90142320687956    5.11395069759786
N           4.17895178136490    9.01531614693804    4.53465881213268
C           4.48254839224285   10.35287468309675    4.43653907540720
C           5.67699545319323   10.79130611980127    3.84528032136007
N           6.64701824066058   11.15507818044689    3.35350520000037
C           3.46049133049596   11.11634217060036    4.96992155502920
C           0.33647403650019   11.21225450988451    6.41231811429824
C           0.72960252707943   12.51118320074584    6.53730707865549
C           0.00168364104863   13.61795415325325    7.03793816258692
S           0.92750577173787   15.09396854179327    7.05715913850972
C          -0.34588567940873   16.01979599426549    7.78898398985420
C          -1.45576221052387   15.19713271710621    7.98782625279307
C          -1.25966915549572   13.84162334658507    7.59150921256023
C          -2.31265765277950   12.83903912982855    7.79900992834305
O          -2.32871987529633   11.73928000074648    7.27430000007198
C          -3.38938835957601   13.24130481073475    8.72798347378800
C          -4.25735880503173   12.26414305948134    9.20894596524600
C          -5.29072861785124   12.60422721745464   10.06196951758202
C          -5.48333422146796   13.92918707955242   10.42790836613067
C          -4.64094368216202   14.91086947679115    9.94050406089181
C          -3.58308897450994   14.57428533764161    9.09982884525392
C          -2.71810274575497   15.64143123891266    8.57066157731095
O          -3.06467446152449   16.81257817720962    8.61169508544901
C          -0.12686736885342   17.39299179159561    8.13268721169789
S          -1.43588357027457   18.53949096825918    8.23682972167637
C          -0.36370149041665   19.79594618662281    8.63113076612177
C           0.93552488730528   19.37882002269926    8.73613895831187
C           1.08875141265049   18.01904441699666    8.40582859723714
C           2.42582995917337   17.34820182094277    8.47763016340795
N           2.44247323272039   16.42799121285785    9.65314579586325
O           2.91958308254830   15.33301290574545    9.48522134280982
O           1.99794758213359   16.84842419647389   10.69307831330003
C           3.58259027213466   18.34277504830157    8.64565251585340
C           3.24941084109349   19.43539411073894    9.65201513714266
C           2.06186928005365   20.26580795482596    9.15552095865822
N           2.52458121792372   21.09165172411091    8.00043688310613
O           2.58533552706887   20.55494344924613    6.92113277304077
O           2.83659300273653   22.23024863268957    8.23874202963610
H           9.63420639712316    1.81829927962337    1.53100968619069
H           8.44379287920928    3.41861476896499   -0.46529841206097
H           6.89302910912143    5.20339122307328   -0.07250599086247
H           8.19341712385308    5.92379873860265   -1.03381780939981
H           7.63416550374385    7.46147918875112    0.77578704005478
H           9.24288822621910    6.80089573866542    1.05580304056320
H           8.15044744457346    6.71981702744217    3.18035709245912
H           7.76687671717899    6.36454868693242    7.89773285430844
H           5.30162141628193    5.74563883242375    7.13090808229830
H           6.16898916290722    2.45553372095101    3.64221839821814
H           3.68815049105041    1.72937250621680    3.09764570553663
H           4.35664931813045    6.53557171706709    5.25886115085538
H           1.37895577816222    5.84425398276980    5.40196578409357
H           4.74225055698008    8.27708873994018    4.13191454916951
H           3.44919493597408   12.18640869458273    5.00802804280921
H          -0.66476221707200   10.92626856862782    6.69907768712475
H           1.74224116446410   12.76265648477297    6.25070073242833
H          -4.10179314098967   11.24174831457381    8.89872139041163
H          -5.95213100547045   11.83809314139487   10.43706741474934
H          -6.29471836440051   14.19559138344665   11.08801915690318
H          -4.78072164531092   15.94930260628793   10.20068703068073
H          -0.73822170826198   20.78258871873619    8.82248670854248
H           2.63049323879072   16.73302867750243    7.59915819350476
H           3.78147007967655   18.78259687923792    7.66598917285188
H           4.47854526133364   17.80212933016292    8.95668656060990
H           4.11555828031847   20.07956390552218    9.81265633397375
H           2.97091273552582   18.99150290158467   10.61062027797808
H           1.74314037180423   20.97608318182412    9.92394080722071
