100
 SCF done       -182.447767933574          0.000371346548
C           3.96067738444140   -4.00955126884366   -0.56079905262121
C           4.66052066334632   -2.88239372358632   -0.13280304696647
C           5.78117194453198   -2.63713945915422   -0.88924257179569
S           6.87920146467421   -1.31452217640235   -0.64498352326302
C           8.15417826357469   -1.68647654368796   -1.88075185968747
S           5.97693225642669   -3.80668784213276   -2.15820149677157
C           4.52964425243858   -4.63724543233394   -1.65053559206898
C           4.05059363178828   -5.79130782024511   -2.31296697208218
S           2.60220165578415   -6.57686091563349   -1.73904906097664
C           2.69760653969771   -7.78989627084064   -2.99193319944664
C           3.81269293756550   -7.58083208534305   -3.78834631495103
C           4.56599687707599   -6.45612211792729   -3.41360148830179
S           6.04562022364752   -5.95354430987765   -4.22717202420111
C           5.38144906013677   -5.52556351345512   -5.88277431852203
C           5.25927922615097   -6.71038015689190   -6.82930159987696
C           4.06358548108449   -7.60845744362719   -6.55443160951943
S           4.23957453815510   -8.68827285972941   -5.08760482114536
C           1.70670366384398   -8.77139319089414   -3.19168382344628
C           0.62054438254629   -8.94512032260226   -2.39596587050427
C          -0.46196001675506   -9.81971024077576   -2.65626596031440
S          -1.43197979938075  -10.34742171255642   -1.32262275743646
C          -2.45708216214468  -11.29746022556345   -2.36809314312036
C          -2.04982545099075  -11.17462711311357   -3.70017730175827
C          -0.94498418651551  -10.33384020468814   -3.86247079360048
C          -0.41010370457021   -9.94666051730783   -5.21245682855276
C          -0.16846027376406   -8.44811920866613   -5.32255212573134
O           0.71731583556759   -7.93971770497070   -5.96045874274130
O          -1.11181799507461   -7.75688838775238   -4.68339761408141
C          -0.99874221219061   -6.34183268873396   -4.72251735862140
C          -1.40695564890502  -10.33125526065023   -6.31766534250334
C          -1.85082364670241  -11.77317731602161   -6.11602912560803
C          -2.69878924495632  -11.87800142869041   -4.85138445709879
C          -3.50641609331649  -12.02742142600812   -1.76699882311857
C          -3.68409259125168  -12.16268213769343   -0.39833432812381
C          -4.81249729739121  -12.96426180921657   -0.13987834568376
C          -5.37551658243710  -13.31191957137047   -1.46208036245963
C          -4.59173022047536  -12.75106875068291   -2.41811595042064
C          -6.53420630635160  -14.05227454711964   -1.71727164825655
N          -7.48463518908245  -14.64568929444837   -1.97182291568236
C          -5.28928741558361  -13.38207982238837    1.08885224651989
C          -6.34715429162061  -14.29280106096722    1.34838157880515
C          -6.41663913831190  -14.53073326637895    2.70953055264076
C          -5.41862157349692  -13.69739973049107    3.35482866752224
C          -4.74906370619535  -12.99796290516018    2.39747596323776
C          -3.75004704972457  -12.05358560429629    2.65431860774388
N          -2.94191560107409  -11.27611412134532    2.90558004225856
C          -7.33087241152216  -15.39284532967422    3.36118799455008
C          -7.20689006838204  -15.94999121761381    4.60005965212593
C          -8.40415981826972  -16.43612569415771    5.33407227672719
O          -9.51397528867029  -16.60920349872265    4.88631061276647
C          -7.95674022311134  -16.59954841109427    6.73519112194230
C          -8.69429169257143  -16.90740359773880    7.84135082957183
C          -8.05113900894844  -16.97977219066437    9.09780150090463
C          -6.65150993254991  -16.72554148750006    9.18338579085629
C          -6.01840863578941  -16.79073801101897   10.44080098126472
C          -6.73995255805077  -17.09732610635502   11.56003491763005
C          -8.12341405181746  -17.35051875765519   11.47420601070699
C          -8.76663533800096  -17.29352679981866   10.26973228371202
F          -8.80640631893560  -17.64786651110047   12.58887623430281
F          -6.13603817394063  -17.15986685027745   12.75481692943133
C          -5.91142255985426  -16.41702237186318    8.01893983719767
C          -6.55463943351905  -16.36137222180389    6.81197450926336
C          -6.05725228943410  -16.10219155803371    5.46312706270850
C          -4.75406105323728  -16.23580343432728    5.05758663990654
C          -4.35431539622884  -16.26791476164033    3.70459200846675
N          -3.98325375388069  -16.37972531177809    2.62408775389630
C          -3.68140575134052  -16.46406057953069    5.94248673650805
N          -2.77828363706215  -16.63355329521625    6.63061836216880
H           3.06228441447196   -4.37295495754450   -0.09395614934622
H           4.37226293621794   -2.26775332360993    0.69970776002533
H           8.91166365796783   -0.91595596301835   -1.78133070833060
H           7.71574323010357   -1.65963816549324   -2.87420780044402
H           8.58054937197775   -2.66466603136056   -1.67814774575015
H           4.42480038590605   -5.02482289128881   -5.73443699550271
H           6.10445229533002   -4.80880691916982   -6.27112762242929
H           6.17627385255878   -7.30206221343773   -6.78525476977170
H           5.15803421453238   -6.31989942384737   -7.84644574871161
H           3.13656599089595   -7.04976882007759   -6.43096905529107
H           3.93656282561516   -8.31819100705309   -7.37129732945938
H           1.87731145219540   -9.40438803373241   -4.04892713929680
H           0.56867183552322   -8.39236779293473   -1.46523087416735
H           0.53829239196174  -10.45740944178879   -5.41330860542538
H          -0.82757830153016   -6.00175678466059   -5.74566226691359
H          -0.16607428029734   -6.01788754179542   -4.09459791272216
H          -1.93548509891192   -5.94883962281181   -4.33742688117965
H          -0.93054694432812  -10.20124691750836   -7.29023316821270
H          -2.27660913833306   -9.67219306079875   -6.26883768880632
H          -2.43304224404587  -12.11203723936063   -6.97376919306189
H          -0.97257448050485  -12.41570730024676   -6.02869761268657
H          -2.85318138265190  -12.92901508513876   -4.59953512379634
H          -3.67870819599267  -11.42628719531566   -5.03634638170945
H          -3.04030264876765  -11.74802881389750    0.35248877447835
H          -4.76919362895875  -12.80871922641631   -3.47377327247366
H          -6.94612499044200  -14.77405704637131    0.59993945977357
H          -5.28218206897330  -13.59960074357496    4.41645443052664
H          -8.27078066939177  -15.58041592584976    2.85201645088165
H          -9.75459947830048  -17.09241929630697    7.76033454629879
H          -4.95924206874275  -16.60295824786487   10.52307761236228
H          -9.82628903001672  -17.48968452236040   10.22102001526330
H          -4.85471969416194  -16.22230893750356    8.11160546162849
