87
 SCF done       -149.606016820152          0.000306846173
C          -1.11236227474981   -0.80898741555429   -2.32756958549544
C          -1.01407145304280    0.45300614136792   -2.90920694628247
C           0.14180980269809    0.61879642963700   -3.63932889459142
S           0.58220509783649    2.06672360922046   -4.49093932206820
C           2.19316654117852    1.59685405378840   -5.17982704933033
S           1.12435239280638   -0.80627377464015   -3.61272237148414
C          -0.03727741404113   -1.63324680461079   -2.60112244051581
C           0.19167117379972   -2.96152549209145   -2.17223947206822
C          -0.61052202290253   -3.73291645785470   -1.35340812316996
C          -0.00381696179672   -4.99709370387498   -1.16582727534738
C           1.25129187938261   -4.97264249647258   -1.94256133432080
C           1.35288349693392   -3.75272699390606   -2.53444163664708
C           2.18073878957038   -6.00698630289528   -2.07417012679106
N           2.96140484892032   -6.84174526963204   -2.20313374528754
C          -0.46048414213963   -6.05348531797597   -0.40051318492079
C           0.18661260540056   -7.29400359172884   -0.17893637157296
C          -0.57827802380419   -8.06241763394196    0.67981931260201
C          -1.76261781123570   -7.29120758940616    1.02055010497815
C          -1.71102339984588   -6.09582133866707    0.37520760368347
C          -2.68990743168340   -5.10021089543074    0.44380158219731
N          -3.51029471913770   -4.29862673244520    0.51741549391567
C          -0.31515492804589   -9.34984660042895    1.20280788066966
S          -1.25680220942923   -9.92394321897748    2.55076805972263
C          -0.34680664804614  -11.40536248337371    2.62286240246424
C           0.62813476853538  -11.43781891900139    1.62326552799873
C           0.63962416530099  -10.29422949122820    0.82160689102496
C           1.55738953477033  -10.14959172422523   -0.34808810920035
C           2.08833473989593  -11.51355895766769   -0.78453052038124
C           1.03035406384768  -12.38638516834419   -1.44226999464346
O           1.20203952866063  -13.54066182070751   -1.73609680801036
O          -0.11476939875718  -11.73496850948657   -1.66488961598947
C          -1.15148953525832  -12.48227419627251   -2.28483700667113
C           2.66644243326459  -12.25878832688032    0.42255570653897
C           1.55606638669268  -12.59394680715588    1.41728951775646
C          -0.61265937195640  -12.38824577196406    3.59836983855707
C          -1.57612605964975  -12.26801164270701    4.55357998250334
C          -1.85529587501221  -13.21216673499399    5.56591544486586
C          -2.81131661461341  -13.06756783924511    6.55449196172770
C          -2.78951437135301  -14.20118665934204    7.40602147024105
C          -1.74027191389033  -15.09015445094962    6.86892429734285
C          -1.19413255649202  -14.49103203081344    5.77854140038454
C          -1.35337441379973  -16.33640298280044    7.37129460417097
N          -1.00665795639731  -17.36345391989730    7.75383651945554
C          -3.56791729075089  -14.43805515920893    8.51796291891792
C          -3.53321549585454  -15.56700724647075    9.38417170106408
C          -4.46607218377360  -15.40624933287814   10.38001359820406
C          -5.13682210989114  -14.13626829742739   10.16209086304915
C          -4.61185379040114  -13.54649599836912    9.05459900715087
C          -5.01465589159549  -12.31091636653221    8.54149339776791
N          -5.37264000063552  -11.29067029547377    8.15080472108449
C          -4.75548335046124  -16.30384074066014   11.46178511441148
C          -5.74243787145241  -16.07325486564270   12.46219612864777
C          -5.81828825892308  -17.07530560955164   13.37792034022425
S          -6.91264291134847  -17.12622447188993   14.73847087078341
C          -6.45079684417990  -18.70581327698787   15.50242191493196
S          -4.66942545026217  -18.34298972627567   13.03464401519844
C          -4.10496147861502  -17.49979201971457   11.66069117993126
H          -1.94181470857738   -1.12409801696760   -1.72145704402000
H          -1.74993271609881    1.22966903102224   -2.81028181523538
H           2.55309506688878    2.45834566321667   -5.73282521039463
H           2.07022214166309    0.74664039126308   -5.84472312101402
H           2.87719661444919    1.35545474477638   -4.37120679821087
H          -1.54085401083441   -3.43158076126922   -0.91625175893091
H           2.15007897021714   -3.41175821524575   -3.17025636993744
H           1.14398733549897   -7.54501480651434   -0.58252855888423
H          -2.54798531334345   -7.63597802785925    1.66812752920429
H           2.40438826895717   -9.51206399940436   -0.07654940275473
H           1.03136707166353   -9.66959874670472   -1.17422765634610
H           2.87706871371689  -11.37272497575148   -1.53138905773471
H          -1.96197630542245  -11.78227273401355   -2.47019820590925
H          -1.48448012866127  -13.28668274065144   -1.62572652013645
H          -0.79695818831496  -12.91947771030224   -3.22013235525859
H           3.41797537305986  -11.62669406580299    0.89847550528424
H           3.14601471757907  -13.18042482005549    0.09270195670152
H           1.99540480021959  -12.89460950292683    2.37165644551582
H           0.97985888840559  -13.44612167507086    1.04167704622053
H           0.00558149061527  -13.27409512821381    3.56525273780910
H          -2.18449426990058  -11.37151242592538    4.56303229562470
H          -3.46594102537979  -12.22613892006392    6.66907458456331
H          -0.40543418352563  -14.89494864050230    5.17121344523052
H          -2.87226546346608  -16.40120814881268    9.26141024589201
H          -5.91861677042585  -13.73236596474037   10.77748723261493
H          -6.37240978071443  -15.20527059646476   12.50747996675839
H          -7.09144813056805  -18.82188798588221   16.37058107260072
H          -5.40832383475412  -18.67313407995783   15.80592152413029
H          -6.62136504816401  -19.51516030322297   14.79828357277718
H          -3.32118138894969  -17.93215759737763   11.07231727419037
