78
 SCF done       -139.823032488971          0.000871937109
C           0.60250210872474   -0.17174586997656    1.12679260992666
C           0.67964969146265    1.17800932410765    0.80410555710966
C           0.50681074601971    1.41945477686932   -0.54401017509505
S           0.54099391699604    2.98829558269011   -1.27904908843074
C           0.21456707774206    2.57690758924517   -3.01492379966354
S           0.24906303166176   -0.04519076647811   -1.42830298670510
C           0.37121201015307   -0.99360530308994    0.03571079404605
C           0.23800518219753   -2.39765078868684    0.00459086610394
C           0.29358603033276   -3.27205346475022    1.07481863148492
C           0.12542036886690   -4.59356401634301    0.60427611045982
C          -0.05118875345330   -4.49241783243610   -0.86082614725769
C           0.01493626506898   -3.18058835095868   -1.20111977201152
C          -0.28166477628656   -5.54044032381550   -1.75869703377033
N          -0.48135944764687   -6.36757974662900   -2.52997237384516
C           0.12994763314394   -5.75964557423313    1.34738826513136
C           0.04275128968894   -7.09413286336563    0.88267737831304
C           0.10354185066363   -7.96048198583209    1.96509287174795
C           0.21944718748071   -7.15401094343431    3.16811926636378
C           0.24427629328206   -5.84153725330279    2.81528688599123
C           0.34418366911934   -4.77687744201324    3.71595314274408
N           0.42687601442199   -3.92705728167378    4.48555162903821
C           0.07809705604023   -9.37399686854571    1.94419690289011
C           0.01877700609851  -10.20798612456683    0.83919743842316
C           0.01873031971774  -11.55695531339886    1.27092646634529
C           0.08558565456736  -11.51736784993482    2.74684736902450
C           0.12585644285397  -10.21703069320083    3.13132131960099
C           0.14389940780040  -12.60524098117281    3.62533380868422
N           0.21408891849947  -13.46377184404276    4.38500902769267
C          -0.02730508536018  -12.70032960071249    0.49769398230202
C          -0.09434864665145  -14.04465008084637    0.94193966776579
C          -0.10822086989079  -14.88901578411768   -0.15508911917971
C          -0.04349973281437  -14.06132348086579   -1.35040367915138
C          -0.00350175605142  -12.75611332412069   -0.97725648497642
C           0.08251554935702  -11.67574326360890   -1.86213149685139
N           0.16058232463253  -10.82032946568259   -2.62460341175364
C          -0.16139941251842  -16.30411628271228   -0.14650523462074
C          -0.27834190968741  -17.13285574683549    0.95523125992168
C          -0.25943141740923  -18.48728532487375    0.52800858707004
C          -0.12605810642781  -18.45029558298513   -0.94175708332407
C          -0.07935084818015  -17.14892228534987   -1.32829781317801
C          -0.07303365036074  -19.54488004859511   -1.81038003456770
N          -0.02718601145962  -20.42068555786510   -2.55325091260838
C          -0.33172762318730  -19.62081985238114    1.30629506191893
C          -0.21405936904676  -20.97438489575200    0.88415966778194
C          -0.30166537047985  -21.80178671205022    1.97771808772861
C          -0.50416863549086  -20.96832309981071    3.15412164940695
C          -0.52501910624163  -19.66621609166461    2.76986782912494
C          -0.74030398649447  -18.58156519165182    3.62647699218870
N          -0.92924000346285  -17.72166432307068    4.36432632921402
C          -0.20944356286535  -23.23177924396808    1.99995236195160
C          -0.22625887406482  -24.02853431437428    3.17961464547569
C          -0.11490032185304  -25.35990589928009    2.92560528295403
S          -0.09752580699277  -26.62558151423525    4.12692252518786
C           0.11818618331919  -28.09675935577326    3.08715759126389
S           0.00867009070758  -25.67512998603274    1.21208426669836
C          -0.08489525175143  -24.00771541945518    0.86773257579109
H           0.71012829434214   -0.55520028917285    2.12479627372423
H           0.85322409388669    1.96698022945767    1.51253296109099
H           0.21299580963269    3.51662663540309   -3.55757340687427
H          -0.75458597605131    2.09314115801881   -3.09711956964405
H           1.00077794678577    1.92737227643391   -3.38905283717378
H           0.44897987338526   -3.00163147444917    2.09934767276889
H          -0.08000417033121   -2.76650423529948   -2.18860786146185
H          -0.04481341946404   -7.38118507356517   -0.14662557385687
H           0.27906419335459   -7.53458250741353    4.17048291431254
H          -0.02738960859432   -9.89199075641034   -0.18422059501199
H           0.18392172865517   -9.86354482255132    4.14358570065028
H          -0.13111542699609  -14.34999849513197    1.96870834757622
H          -0.03339423573055  -14.42646409889306   -2.36032164237552
H          -0.36026498475607  -16.81590999341399    1.97603674672239
H           0.01099798715765  -16.79664940452818   -2.33891346673614
H          -0.05789033450693  -21.27864760122240   -0.13098775433520
H          -0.62714915575958  -21.33055506476749    4.15734017912834
H          -0.30971213766687  -23.63858894227880    4.17624065873625
H           0.14781608819916  -28.94453446382141    3.76395664011931
H           1.05240288836863  -28.02187904215448    2.53804339518296
H          -0.72290051920708  -28.18931181622102    2.40603048320690
H          -0.04897991912662  -23.68413828033676   -0.15292732341037
