98
 SCF done       -196.181876000285          0.000294248758
C           2.28948949525517   -1.87946871519906   -8.46862097827361
S           0.91476401637803   -1.16391037894082   -9.17833092427475
C           1.38110968149586    0.38791019650437   -8.56683336437086
C           0.56113570197538    1.59818264086883   -8.84032832567697
F          -0.67593862012672    1.51520286746866   -8.31753947575849
F           1.11957013853019    2.70099674910484   -8.31996508303688
F           0.39427727721489    1.83458021631517  -10.15207007689176
C           2.52771787830944    0.33301429741150   -7.83909281055222
C           3.06873672858949   -0.98415096553495   -7.77782398687824
C           4.29626955106585   -1.26769028445584   -7.07206410474845
C           5.40046244209561   -1.98871188018693   -7.46836536519806
N           5.59265770847021   -2.74780872498597   -8.63844798008324
O           6.74118481978223   -3.01654685222136   -8.94044176884090
O           4.61680111499834   -3.09231399290274   -9.28423475573136
C           6.47814747405119   -1.77276885623672   -6.52364826573807
C           6.05801907538390   -0.90818840916576   -5.57401768068651
C           4.68004468872303   -0.57589313452677   -5.83223476416887
C           3.81953118516364    0.09821696626062   -4.99283410020762
C           2.41083332119741   -0.11842753297065   -4.87515168021230
C           1.96397574557101    0.53751892461610   -3.77127414641093
C           3.04739615435187    1.26114434983778   -3.17077298968522
N           2.81010510785954    2.04021885929430   -2.02658131548126
O           3.75577852926333    2.44543059670386   -1.36327454281333
O           1.64728461778664    2.25653273304898   -1.73382770647705
C           4.21059451258148    1.04785849078392   -3.92408316889904
C           5.45255537164706    1.70183010560629   -3.99695548451695
C           5.99694724116652    2.59145611096535   -3.10508529170481
C           7.23103800034553    3.21681213008029   -3.34201620932440
N           7.81284665816181    4.10332860701944   -2.46237469303576
C           7.28189293413960    4.50404233767432   -1.17865602536405
C           7.54271806898647    3.45325477120288   -0.10374455340673
C           9.04148400152568    4.57222653194425   -2.92182898622665
O           9.73067819090181    5.37352800364710   -2.31172726424623
C           9.23056124370727    3.91822038283830   -4.20179858491006
C           8.10491866541335    3.10346877347742   -4.43615670985900
C           8.28931120508877    2.44366331090579   -5.71246331333916
O           7.59421373846442    1.66805282418739   -6.33670027897354
N           9.54600203438239    2.89151182414888   -6.15831353379948
C          10.06888239347647    2.48078153734035   -7.44033261619998
C           9.89010500850526    3.56422581818972   -8.50039705603265
C          10.11944507240318    3.77413107169316   -5.28044216646997
C          11.39494391664780    4.35926799199741   -5.47104560332211
C          11.88110094556602    5.27424630727579   -4.59204867361386
C          13.16177404977318    5.92066168071156   -4.62326864435176
C          14.11711772868409    5.56510326762422   -5.59637860670016
C          15.32611037473450    6.20895601040033   -5.62192098148990
C          15.62445358467209    7.21788988963398   -4.69523677225548
C          16.99956376413512    7.70219738050851   -4.97349856314123
O          17.63509041700781    8.56063660954696   -4.41823281473008
N          17.43928576271050    6.95287747355112   -6.05512400362242
C          16.50343259966508    6.03352713654788   -6.50584761032408
O          16.65883139429911    5.27861015735831   -7.43147677930298
C          18.76320823429821    7.08717019782675   -6.62578695037637
C          19.77552600497042    6.22959651489302   -5.87491156518023
C          14.71867113421937    7.58582015772350   -3.73335130712930
C          13.47057713374781    6.94076642519595   -3.67427990911819
C          12.53627770056070    7.31182375480941   -2.63567617707234
C          12.49096679272357    8.51587512392634   -2.03135940715228
C          11.53761540945402    8.85317833790369   -1.01973468259585
S          11.65615792573717   10.39460639407315   -0.22042014361819
C          10.27395711161435   10.03002883981113    0.73867125785336
C           9.76989032261826   11.00300185033340    1.74252186679409
F          10.67376920849193   11.28219376922143    2.70016101298858
F           9.43150457957720   12.18715359746210    1.19973321493028
F           8.67809607942440   10.54628393713006    2.37155534807086
C           9.75019030074753    8.79695879378082    0.45380625272751
C          10.46647835511340    8.12779828651613   -0.54556487032542
H           2.45352082685515   -2.93168382796575   -8.58334330525835
H           2.99220993020923    1.19330598834405   -7.39302925955204
H           7.43485262418333   -2.25118588530130   -6.60768963021555
H           6.60546931795754   -0.61087801576483   -4.70222399649031
H           1.83974934956450   -0.79073289144704   -5.48398003760088
H           0.96796378175378    0.53531135196549   -3.36974691598290
H           6.02392525456053    1.48585899608246   -4.88973638879292
H           5.48076576627145    2.81587413517990   -2.18490814388040
H           6.21125579598397    4.69798170232444   -1.27231005478071
H           7.78918799165608    5.43642335642209   -0.91659150222482
H           7.04406336909176    2.51853502039346   -0.34678278183265
H           7.16276471006965    3.80769813177381    0.84975128475665
H           8.61036024014470    3.26868075871398   -0.00802342732517
H           9.50186214485571    1.59064113019923   -7.72639889723295
H          11.12204854708128    2.20675416020393   -7.33507679439847
H           8.83433581334946    3.79076152048327   -8.62691732505608
H          10.28491541859751    3.21458341584527   -9.44989173985014
H          10.40914194699861    4.47830699766836   -8.22016070212343
H          11.95788279000031    4.04601104608311   -6.33679433335580
H          11.22137589367092    5.54889246037014   -3.78541137425753
H          13.91456329705919    4.78794284180610   -6.31514765726120
H          19.04206023568911    8.14198801987832   -6.56650624295786
H          18.69849578837535    6.77644472489576   -7.67108009270452
H          19.82660334213908    6.53575515296506   -4.83258995948631
H          20.75848167529103    6.34632695583584   -6.32183871784300
H          19.49117243820635    5.18087182875980   -5.92345217535574
H          14.98084172695898    8.34055713273283   -3.00938948223619
H          11.81327651155090    6.57534193552069   -2.32421943787685
H          13.17037122657012    9.30871746460298   -2.31249740339671
H           8.88274187093795    8.40161804918968    0.95102661913339
H          10.19608136903143    7.15751415480811   -0.91963288420806
