90
 SCF done       -167.914013858774          0.000239925889
C           1.50781449270703   -0.09211730902553    0.77175990135729
C           2.72674318988401    0.28867101617952    0.38902728458952
C           3.94569182735994   -0.33142705954621    0.80550126474319
S           4.02141297530553   -1.68437300647394    1.88023586638098
C           5.75227445082607   -1.75690197744729    1.83026902479198
C           6.46588255817130   -2.73800852205887    2.57115930080409
N           7.79242864964026   -2.76901485971939    2.51864275053579
N           8.50887814254479   -3.63843694198192    3.15563964894051
C           7.99567815745878   -4.57033219776204    3.94841160144342
C           8.84880669606206   -5.47563574917273    4.64848633848020
S           8.18040335324408   -6.60740401079634    5.77298688591811
C           9.75993884032828   -7.18694487979892    6.17532225725706
C           9.92455844601587   -8.18528734200615    7.18142540713586
N          11.13856670281354   -8.55739942771914    7.56618028172792
N          11.34986339959172   -9.43219802109767    8.49803154490639
C          10.38149668198065  -10.06847165688366    9.14563506080522
C          10.70302571331941  -11.02690401592579   10.15631449085913
C          11.97398278108388  -11.33568803613022   10.50197452268188
C          12.33999530168956  -12.26910394161522   11.49714238308825
S          11.20024711302449  -13.18231034437135   12.44007265118368
C          12.42531595156907  -13.98612437528155   13.32238664518901
C          13.67936572658602  -13.58573335276908   12.92844562874905
N          14.86339739836192  -14.02986671185612   13.42794330296317
C          15.93569309052062  -13.50890410370170   12.90338861049368
O          17.14910661206044  -13.85841114515909   13.33369862383934
C          17.21573587013557  -14.83123300196041   14.37283727365286
C          16.97705700518692  -16.24222897311872   13.85379008517148
C          15.89699985339481  -12.51981423638750   11.84440068211749
C          17.17998667355971  -11.96907418297446   11.28295765204930
N          17.01931452022843  -10.98723931570144   10.23400193283193
N          14.77122841934497  -12.08967795217870   11.35851417326700
C          13.63666006360227  -12.60512779723541   11.88413290910380
C           9.02631607784057   -9.76535422680558    8.81911948140421
N           7.89484198261974  -10.25133365617495    9.31991048022313
S           6.65586959304947   -9.52695341349930    8.58643292044055
N           7.49761977952872   -8.56694114334658    7.60294018557429
C           8.79073627541518   -8.77907585988200    7.81170015309676
C          10.75993868904474   -6.56557416065978    5.42605380451956
C          10.23648142159331   -5.58188208335090    4.54989658300128
O          10.87997872683637   -4.84736934575341    3.61449202083420
C          12.17300168376825   -4.35314275253774    3.88039679276215
C          13.23019039212506   -5.43931416992371    4.07068976970080
C          13.10781449182973   -6.11407179523860    5.43552432407899
O          12.02922187219048   -7.01586639830886    5.53905428657766
C           6.57931915570849   -4.63332184821307    4.10805926713873
N           5.83993977334026   -5.45839609378881    4.83860941908074
S           4.28701736947345   -5.08460805502849    4.62825166814471
N           4.48580892319247   -3.85565662492714    3.60030779127399
C           5.78540971882794   -3.69326439640243    3.38356637753586
C           6.25729276661540   -0.75622770971134    0.99876281288861
N           7.55789338660199   -0.52594568558312    0.73217726611547
C           7.81735456085399    0.46449527281990   -0.07712057633527
O           9.07683972954652    0.75212324689552   -0.39120751452240
C          10.07310572104188   -0.08033655972680    0.20549908460684
C          11.42935018149685    0.37776488918421   -0.29761023881380
C           6.78500462712098    1.28725080034260   -0.66694132263225
C           7.15724338132259    2.41643280270886   -1.59028367704093
N           6.04074949842422    3.16140802314974   -2.12962509960870
N           5.52724506115213    1.07352511931438   -0.41605710613440
C           5.22970275878514    0.04897403959100    0.42029018016136
H           0.62400486242081    0.41306212245114    0.42558711268786
H           1.36712197215706   -0.92250630854050    1.44393151019973
H           2.86738137461180    1.12246691620198   -0.28603448266796
H           9.86204062026516  -11.50144005304347   10.64430160095852
H          12.79153060270363  -10.84294281412021    9.99383421046502
H          12.16848281067152  -14.70101064754196   14.07727403025333
H          16.47729778643329  -14.58355577565189   15.14198075626668
H          18.22561543377710  -14.72994023686885   14.77681862502055
H          15.96231214959231  -16.32972751348916   13.47510374956472
H          17.11518320280236  -16.95419512780974   14.66220913551595
H          17.67713732011841  -16.47211337162352   13.05418719679254
H          17.77667738565356  -12.80408252428571   10.89871414828372
H          17.75299758854569  -11.52186295678126   12.10309707959996
H          16.49205803378289  -11.39346989025906    9.46731551283645
H          16.46562718023245  -10.20962979617001   10.57980042328617
H          12.40199962373802   -3.74626450839371    3.00148855281609
H          12.15127688190708   -3.69850410953353    4.76451860071597
H          14.21873211645851   -4.98636227468606    3.99031634685021
H          13.12448928999288   -6.18929431911720    3.28449196705419
H          13.98316158279765   -6.73632510143473    5.63440736580826
H          13.03402867992465   -5.34830825633774    6.22211306481207
H           9.87148639883409   -1.12316640057016   -0.06043460524930
H           9.99618007195439   -0.00029135580107    1.29492146766531
H          11.47757291335517    0.29114860004831   -1.37992146683957
H          12.20742020582164   -0.23811412728441    0.14322039483501
H          11.60032251276871    1.41621676652622   -0.02610239092310
H           7.74440667944422    2.00709673431312   -2.41963447136792
H           7.81288970924347    3.10593605925120   -1.04685606553906
H           5.43066836285695    2.53096731702368   -2.64066418736194
H           5.48900839017992    3.54004817003941   -1.36603030347286
