94
 SCF done       -183.103100256637          0.000949626966
C          -0.72676811544569    0.71398943294380    2.45695092375519
S          -1.25148818032993   -0.62710839183700    3.36928370125668
C          -0.65145101959064   -1.77809700577554    2.21147610292392
C          -0.04292711783162   -1.09766665324390    1.14860955710458
C          -0.09999306655460    0.32473835280609    1.29297890434341
N           0.41890732398775    1.15033270926256    0.34802498660535
C           0.97454188321094    0.56915777493549   -0.67888786165518
O           1.49573446486945    1.29414698230464   -1.66213876697018
C           1.40247601336866    2.71113996818899   -1.52872993768070
C           1.98907766150023    3.34110872544242   -2.77814117923553
C           1.07846300318354   -0.87165135884252   -0.80992110540490
C           1.82540648576780   -1.46317061668313   -1.97511412976257
N           2.11248893610368   -2.87301695194210   -1.90271723065036
N           0.57715194450403   -1.66470552152094    0.08985930963998
C          -0.82860521933101   -3.16287924402270    2.39126374552747
C          -0.46776144130135   -4.07373987200190    1.44162748447267
C          -0.63764936773337   -5.46041652099243    1.55535857711951
C          -0.36685745674728   -6.43524783970754    0.61151764525612
C          -0.71346085528564   -7.69165007417413    1.17901295271381
C          -1.19879983560515   -7.43920154376111    2.51923061241081
O          -1.58563912713755   -8.17332989347856    3.38642739413423
O          -1.12976042191368   -6.05839842712960    2.68413864630003
C          -0.47226662181346   -8.66171824410367    0.22990406701426
O           0.02526977375430   -8.06852748717411   -0.90470318941847
C           0.10772153423276   -6.67090822392334   -0.72769752268203
O           0.51580388858044   -5.95252250114113   -1.59424075208537
C          -0.65586200120195  -10.05083885420538    0.28991504666270
S          -1.18953091314113  -10.78695237217321    1.76717093724006
C          -1.11605460375448  -12.36834769166742    1.03971283539920
C          -0.70051430831795  -12.29919445335058   -0.29262449946302
C          -0.45231170648811  -10.99663457898114   -0.71527993682630
C          -0.03507064581754  -10.62685080182256   -2.10670135798613
C          -0.91146693936426   -9.51383586041839   -2.63452452889182
O          -2.06244197631594   -9.33698258661888   -2.35733985366766
C          -0.25461315988346   -8.66871894638835   -3.76611767876214
F           1.05577010355196   -8.47900840007673   -3.59566516680848
F          -0.38705431536438   -9.32963346505703   -4.93888351067949
F          -0.83698265386513   -7.48732967643970   -3.91695503492779
C          -0.19479132075868  -11.83052794249091   -3.05830406063643
C           0.34846242498271  -13.09124305215253   -2.39499746227810
C          -0.51727149343653  -13.47637097575203   -1.19738488555442
C          -1.45598049325605  -13.53493410749351    1.76330571318073
C          -1.84915312897355  -13.52627490916029    3.06418262493040
C          -2.17390234736145  -14.68200124176833    3.82020578082324
C          -1.91026994675579  -15.99169825879562    3.50710310818003
C          -2.26922174908722  -16.81716948562113    4.62814385594322
C          -2.18589474356028  -18.21549645679220    4.64462590344273
N          -2.11584990086608  -19.36152075698958    4.64851229837402
C          -2.70847632463724  -16.01802074967380    5.65623899313344
C          -2.70753274413336  -14.66229721726097    5.19902212137280
C          -3.25658219748896  -13.59731862001628    5.87157679815886
C          -3.55166076557211  -13.55525268867943    7.32648828084809
C          -4.41363875783705  -12.52176435819811    7.54129641435562
C          -4.64818230367481  -11.85880346814642    6.27893996513615
C          -3.90150934215233  -12.46103288274757    5.29497901714776
C          -5.52992355099138  -10.78179057010281    6.12007330063965
N          -6.27681501156379   -9.91674690246031    6.01203245735177
C          -2.92321601260404  -14.34125180513332    8.33460012194817
S          -1.29637841982589  -15.01805339539473    8.16286387491957
C          -3.35200082394803  -14.57896109592310    9.61520585250979
N          -4.44871226487751  -14.28857088324562   10.39842949972502
C          -4.26859817151813  -15.02161563818924   11.64659997703676
O          -2.95863876358771  -15.56729615535639   11.64280338607167
C          -2.43696543178825  -15.31948087054751   10.40880717245248
C          -1.27947382582695  -15.63102738872273    9.78519339227623
H          -0.90316215871053    1.71260686672244    2.80187802552012
H           1.94831173002084    3.01874361351443   -0.62952785402156
H           0.35060858626677    2.98680161054236   -1.39480233082982
H           3.02680952597613    3.04192722150458   -2.89650725835480
H           1.93704413844026    4.42293844820111   -2.70066219817353
H           1.43404032666373    3.01978748298563   -3.65518981537104
H           2.77351335926802   -0.91703616799630   -2.06516590845805
H           1.25977734737666   -1.25930120673530   -2.89070190822737
H           2.51828777108927   -3.10808600817774   -1.00379979823640
H           1.28075441976410   -3.44184557897645   -2.01651068243033
H          -1.28852945438291   -3.49836008645167    3.31091029314843
H          -0.03106309498490   -3.73083843836758    0.51538371962511
H           1.00928856852138  -10.29693474645189   -2.10247409519017
H           0.33320151232060  -11.63229054227617   -3.99107831162868
H          -1.25358786804749  -11.97050611322075   -3.28721388618448
H           1.37454109774050  -12.91660883357758   -2.06585896448397
H           0.35826038490745  -13.90766404548272   -3.11787240633143
H          -0.05481488474474  -14.30137434463004   -0.65257391805488
H          -1.49732366296223  -13.81687061136366   -1.54581729349798
H          -1.40831402575074  -14.46854636613610    1.22186269358380
H          -1.89741382567465  -12.57257024862349    3.57155311696305
H          -1.47969042387530  -16.37130046656631    2.59997789233302
H          -3.11158595581483  -16.36339675933326    6.58776190424740
H          -4.80957066229145  -12.19232165737590    8.48287963431723
H          -3.92750624483956  -12.20937576737341    4.25307724814750
H          -5.37056091792269  -14.25811615337328    9.99310347280917
H          -4.99957724857046  -15.83994204681735   11.76311079910174
H          -4.36084134649348  -14.33952289348284   12.50385043874732
H          -0.43045152875339  -16.17408417127416   10.14262370305039
