96
 SCF done       -167.863736720803          0.000685968991
C           3.89015457651205   -0.16203543794024    2.66949600863164
S           3.66381277989332   -1.81713441012560    3.02918085646979
C           2.90483205358228   -2.15261128758581    1.50343345843456
C           2.83098099076703   -0.97920811961959    0.75115819815392
C           3.40284982922558    0.15141688866336    1.42371558931356
N           3.43280296215201    1.37917559096242    0.83931421252249
C           2.90085494581091    1.45899349489846   -0.34680342353300
O           2.88610809765498    2.61792453170322   -1.00274421996172
C           3.47731250342534    3.73060982743617   -0.33735602884911
C           3.32964416676474    4.94695967361904   -1.23278212954242
C           2.28776085108450    0.33052871702406   -1.01859716071008
C           1.62974199674033    0.53405419050303   -2.35764689538427
N           0.88613145875326   -0.58617308676055   -2.88039380425650
N           2.26513765044310   -0.84817170061170   -0.47246559227742
C           2.48418684528086   -3.46333514747738    1.17481694659893
C           1.99328523824293   -3.79639011725429   -0.04488314803497
C           1.57231880422588   -5.09547975565446   -0.41446540790839
O           1.55090002568273   -6.13022739298082    0.44898960601651
C           1.10131459991685   -7.22737573866601   -0.21615359655012
C           0.83195519365366   -6.90165293537939   -1.53126360022109
C           1.13070554693806   -5.53139315793288   -1.66896292397428
C           1.03824466245446   -4.73065981097489   -2.81236909496564
N           0.97690576523357   -4.06127752941475   -3.74263338750796
C           0.94955645162051   -8.47413743371684    0.45105561006260
C           1.21451927163883   -8.65475168112238    1.76571478548344
C           1.04989225456325   -9.87684437525754    2.46914546092411
S           1.24500792984516   -9.89832424364429    4.19876176332121
C           0.84716295384238  -11.58509113234616    4.28593641651341
C           0.60895940109877  -12.10652924171810    3.02365504732361
C           0.73197081621463  -11.14387964818408    1.99501372974199
O           0.60053061257978  -11.40323648392741    0.66108236609184
C           1.03683024527791  -12.69128781505283    0.25391849477518
C          -0.01579405366891  -13.78639643489876    0.45052108939622
C          -0.65142409561255  -13.68920896984170    1.84043199747066
O           0.29636117285170  -13.41821939611426    2.86103776219983
C           0.75427869371611  -12.23484738008714    5.54398354224104
O           1.24634586494583  -11.59707408603369    6.62436645518332
C           0.99874317900308  -12.35921534294146    7.72146423879816
C           0.33366890892418  -13.50600597254884    7.34384870902364
C           0.17163257918073  -13.44008644922481    5.93993092040750
C          -0.51585359430055  -14.39847012997675    5.18472340996832
N          -1.12927343536149  -15.21950097897347    4.66679772098070
C           1.41464356348545  -11.93771769838990    9.01300589550709
C           2.14263197299443  -10.81915970447374    9.24374904181991
C           2.56032564283561  -10.40387653472182   10.53118087564670
S           3.60048143401263   -9.02768592851104   10.72205963320189
C           3.67342348834783   -9.16255139449336   12.44489479062816
C           2.90016591815454  -10.24411926863520   12.86386837360840
C           2.27235257314187  -10.94396641871297   11.78612862040222
N           1.47368582260215  -12.01225491279956   12.01849231903369
C           1.31020956035543  -12.36099274645113   13.26492388929753
O           0.51287834918003  -13.38172746621882   13.59040462264146
C          -0.14373811079396  -14.05965314025206   12.52371784125375
C           0.77931716731433  -15.03921958954560   11.81136522743982
C           1.95141471103584  -11.66833890373064   14.35717493590195
C           1.72944792581792  -12.12812435253710   15.77358202314303
N           2.40576990339177  -11.34752648989570   16.78546085278382
N           2.72018667908599  -10.64222906751164   14.14721461896182
C           4.45501636917720   -8.23324188642274   13.20280389045477
C           4.58410125102616   -8.26061664076294   14.53006185353762
H           4.36509943387110    0.48857864304544    3.37477696392097
H           4.53095448165687    3.50582010205974   -0.13623694094014
H           2.97533226677457    3.87685058243413    0.62577595815078
H           3.81881432091392    4.77002570555980   -2.18667496152760
H           3.78243345260526    5.81040533373829   -0.75481408731602
H           2.27840578985025    5.15150273404459   -1.41600103866117
H           2.40017807894626    0.81763184543153   -3.08286351529296
H           0.95222337742185    1.39173441840461   -2.26751560902267
H           1.49917159718675   -1.36455101635614   -3.09680608454991
H           0.22026385688234   -0.91637844234697   -2.19010443121248
H           2.58638171226330   -4.21876504840243    1.94220970247329
H           1.91617347968806   -3.03827878906985   -0.80985115291761
H           0.46679860696275   -7.55998168660376   -2.29270596896369
H           0.58903304742912   -9.29154282030586   -0.15198596364031
H           1.55758980028610   -7.81572953723629    2.35574562721717
H           1.95140880793482  -12.95536494737610    0.79882839193802
H           1.27997560696867  -12.58953280067807   -0.80683148698034
H           0.47560114878251  -14.75094144094119    0.32360269450781
H          -0.80550429587761  -13.69377784327597   -0.29504428504007
H          -1.11038543184327  -14.63722322366043    2.12953707438381
H          -1.42193609535835  -12.90861400108466    1.84558882573857
H           0.00084564402877  -14.29790353713439    7.98308806456686
H           1.12477588615753  -12.56803107161901    9.83786417721756
H           2.44616866385901  -10.19823020407256    8.41140962405464
H          -0.53350359409054  -13.32011085808796   11.81609787502421
H          -0.97219785906364  -14.58691912974001   13.00224004244887
H           1.60625922377337  -14.50702438534608   11.34815325455193
H           0.22321298991121  -15.56848041617625   11.04291170740555
H           1.17819726595345  -15.76109029554372   12.51969137519391
H           2.05547263079682  -13.17085590049463   15.85521079075503
H           0.65302719317079  -12.11490460981988   15.97670547090434
H           3.40536987959852  -11.35761830106423   16.60849060989792
H           2.10737369394234  -10.37925209608017   16.72128362854457
H           4.96025463606470   -7.47637749195014   12.61606260613878
H           4.08662169421136   -9.01051060539900   15.11796861528533
H           5.18842808632652   -7.53657681164136   15.04743915818683
