106
 SCF done       -190.221648040612          0.000524112499
C          -4.51068409354748   -0.08401051842190    1.30296854194687
S          -2.99026665912810   -0.71423691362459    0.83752858365787
C          -3.26378175366331   -2.23046129840059    1.63964262690208
C          -4.51775354479120   -2.21593921901296    2.24897265959331
C          -5.22820866727576   -0.98734781131842    2.04903619379290
N          -6.47512159667874   -0.80567825601427    2.56106666030062
C          -6.96542605085109   -1.80794657171042    3.23350803804446
O          -8.18551451135887   -1.73219741283889    3.76340247476066
C          -8.89575693391433   -0.51659299240784    3.54058237392509
C         -10.27388496427648   -0.65400801817359    4.16055660495084
C          -6.24636645647698   -3.04675026137964    3.44854329620633
C          -6.87647952060373   -4.15385021076066    4.24971901499647
N          -6.05262844272122   -5.33151106936872    4.41513179997154
N          -5.05551455681862   -3.23245563279776    2.96154611739148
C          -2.34811584206243   -3.30568884437194    1.64367893702336
C          -1.15585322199584   -3.32106764769519    0.99964244566022
C          -0.28038733566263   -4.43578789347030    1.00895845717951
O          -0.56899019518421   -5.55778384121420    1.69414111532340
C           0.43349270247325   -6.45115507125209    1.49242574882665
C           1.39173463240827   -5.90158525626134    0.66467701364627
C           0.94278601677723   -4.60277559694699    0.35018009055937
C           1.57585240898290   -3.65519403119004   -0.46295357819125
N           2.09267077020520   -2.88029852690541   -1.13294772995781
C           0.34395062151640   -7.71438083177059    2.14514981957462
C           1.18915628036020   -8.74097464145112    1.91111832510379
C           1.17546337206249  -10.01431752707593    2.55665214300176
S           1.79096100543056  -11.37762647354575    1.67232532023907
C           1.44798818070277  -12.46072503636152    2.99038861823962
C           0.90574323993897  -11.77305060390425    4.06516228429221
C           0.76143910299710  -10.39654679812005    3.82349898969046
C           0.27135122068652   -9.44325772565147    4.87859967301581
C           1.10165373952235   -8.19672558968610    4.99337630702392
O           0.67686718626652   -7.09189536334982    5.17689250812821
C           2.65250564961520   -8.38153673928478    4.98248578752016
F           3.07329487048149   -9.65191843992136    5.03245944235575
F           3.19028111022766   -7.83748251498803    3.88401824846104
F           3.19236550101651   -7.76326311189093    6.03981128888493
C           0.27949976683289  -10.10637954065647    6.27427459689081
C          -0.36651701796680  -11.48298050255809    6.18247023930404
C           0.51919665058524  -12.41434196404460    5.36116639146909
C           1.72155665290361  -13.84886213138416    2.90365053010371
C           2.19600572938473  -14.47046726682822    1.79695757139031
C           2.45979125343608  -15.86064834051511    1.72858097001027
O           2.29923002913211  -16.66770236781722    2.79801328958429
C           2.61773222809181  -17.93548641291759    2.42529519342160
C           2.98717554297754  -17.95219885761552    1.09399317001455
C           2.89160445523323  -16.62174441728517    0.63805100301782
C           3.16233270955641  -16.14093159375986   -0.64831454152261
N           3.38725417127957  -15.75271972460301   -1.70441089098183
C           2.55454572686855  -19.00779929752641    3.35417627458154
C           2.22575594980446  -18.85631164665238    4.65998287541562
C           2.17416913932680  -19.92075055563643    5.59048787863115
S           1.80951092791279  -19.61518686558817    7.26028546855876
C           1.94258278080957  -21.27561118376969    7.72474128997252
C           2.25701279208946  -22.05028158538345    6.60933577011024
C           2.38773864181603  -21.28826412307176    5.40613501786821
N           2.68442172394729  -21.88700735739361    4.22801651095225
C           2.84253884975361  -23.18232670460568    4.25682015715871
O           3.12977988443975  -23.85010540746421    3.13981210840384
C           3.24440077314329  -23.07515863144202    1.94972020295743
C           3.55174119602245  -24.01670880244301    0.80016132596967
C           2.71828015101306  -23.95822461119270    5.46781965350070
C           2.91831274369367  -25.44988232146659    5.42853130499878
N           2.77519896468607  -26.12278894441090    6.70001482821813
N           2.43312239068342  -23.39462695610439    6.60273023276220
C           1.73903377622302  -21.65510331331761    9.08969994436674
C           1.82668597075886  -22.90491126566141    9.54727776553674
H          -4.80004563511101    0.90380422575805    1.00792884766822
H          -8.95689026720386   -0.33382038405119    2.46187009210013
H          -8.33402891417404    0.31023651703665    3.98982710371326
H         -10.80963340122583   -1.48099278437240    3.70254045480368
H         -10.83613450333552    0.26236451309534    4.00744175814577
H         -10.18777913145701   -0.84526478585153    5.22667323686483
H          -7.81487194102998   -4.44366888120113    3.76378827637658
H          -7.13893243815363   -3.76235752062163    5.23864389685878
H          -5.80208603409169   -5.69594075997638    3.50108427445304
H          -5.18210135001126   -5.07112910409688    4.86849127981103
H          -2.66595936221588   -4.17245561256227    2.20741798461667
H          -0.82497170256830   -2.46533916010472    0.42726872375616
H           2.30261110049051   -6.35689634795517    0.33543726780008
H          -0.48366432700748   -7.80578032765772    2.83149097294371
H           1.93140153143852   -8.63344805172710    1.13210904821840
H          -0.75784651517536   -9.13307717670634    4.66214397826480
H          -0.26365221056581   -9.46672544722320    6.97109306105597
H           1.30271346994294  -10.21762485141368    6.63704638700064
H          -1.34931367821480  -11.39625129616504    5.71528295533688
H          -0.50160366441502  -11.89159510766698    7.18452809839367
H          -0.00231876717066  -13.35458972941979    5.17243889313299
H           1.42821404766415  -12.64659672949459    5.92491108168045
H           1.52938862956158  -14.43765899674506    3.78961535749703
H           2.38968544590803  -13.91163915018350    0.89176123192958
H           3.28928704575526  -18.80632195081672    0.52335496299182
H           2.79486130367611  -19.98814787984812    2.97534775578993
H           1.99477735443078  -17.87072228254091    5.04171179672637
H           4.04218824270517  -22.33484504179494    2.08334771343497
H           2.30392858529768  -22.53613914439552    1.78443850150658
H           4.48384470025159  -24.54292397515952    0.98641178644844
H           3.64061651692054  -23.45107503905453   -0.12255771009297
H           2.75602916642236  -24.74883327971401    0.69361188015947
H           3.91790960581101  -25.65498580824708    5.02990888272499
H           2.20000491283807  -25.87659133984393    4.71975686026152
H           3.44306463153286  -25.74159521609384    7.36274609954031
H           1.85068128965629  -25.94070172129647    7.07779147639624
H           1.50333495178269  -20.83850563812606    9.76054829234875
H           2.06380116315775  -23.71941404086553    8.88712874970683
H           1.66725232869122  -23.13121370615720   10.58669631479049
