88
 SCF done       -151.789271401597          0.000306418621
C          -0.69948524399522    0.75631458568416    0.72753251007986
S          -1.26151417610250   -0.67130379862495    1.48016634243133
C          -0.75763452026738   -1.69037827110127    0.16904131466167
C          -0.16705055006305   -0.90981120609078   -0.82421154777474
C          -0.13725959344252    0.48770835347843   -0.49646910440518
N           0.40409997023767    1.40161289873736   -1.34623604370079
C           0.88503183116627    0.93031877478570   -2.46080173584911
O           1.43900652467538    1.74681979361021   -3.35747114311675
C           1.46573688354321    3.13049397218373   -3.01834741447992
C           2.14135610091736    3.88094205034336   -4.15117618480958
C           0.85547686395149   -0.47573589333879   -2.80137020923130
C           1.42600704983281   -0.94562242031676   -4.11282665840530
N           1.33555744776221   -2.37096531716130   -4.34261914240431
N           0.34207287545322   -1.35727359976181   -1.99660938814485
C          -0.96964612175606   -3.09219946813661    0.22613525583018
C          -0.59916855390072   -3.95621933293616   -0.74394124472627
C          -0.81858701893243   -5.37240855066932   -0.65500210372432
C          -0.40163613770885   -6.24481915264619   -1.67516351899718
N          -0.59246830710800   -7.54249210388124   -1.62608756175493
C          -1.20570635784294   -8.03957416744938   -0.54312335626303
C          -1.62009323756108   -7.17031540457160    0.48405859334793
N          -1.43500538128840   -5.87529835868090    0.42982150497667
C          -1.40711518686729   -9.45859415016697   -0.46089024345954
S          -2.28977346173440  -10.17022139144084    0.85336121405712
C          -2.02144150550527  -11.76712183748942    0.23924344339947
C          -1.29494167088888  -11.74268182443740   -0.93633583519629
C          -0.93169442563802  -10.42727409559109   -1.33123105630771
O          -0.17597152564662  -10.10898650370367   -2.41136783405340
C           0.82372399742449  -11.05212307450155   -2.74942383104591
C           0.29725599124333  -12.20899228494973   -3.60568714702501
C          -1.02987536356960  -12.73037784705923   -3.04769412898767
O          -1.02001603019241  -12.88312564210175   -1.63713913257845
C          -2.57887373086375  -12.86816516550648    0.96743757307507
C          -2.33668027460467  -14.21978077116396    0.67116582667444
N          -2.88738226515341  -15.18796303747822    1.36454088798006
C          -3.69597221665603  -14.85752893893256    2.38384628948591
C          -3.92092852699915  -13.50317830051768    2.69375399919517
N          -3.37306443126382  -12.53804954553095    1.99888876691877
C          -4.28679515547628  -15.93199543281650    3.11480494233597
S          -3.88996085353743  -17.56493771254916    2.69092187614529
C          -4.90990550023020  -18.23511543350459    3.91450222954594
C          -5.54052102830326  -17.21663282493097    4.62457799973186
C          -5.18640499186662  -15.90685137205159    4.17399819472777
N          -5.71531494392422  -14.80296014441639    4.75616845525824
C          -6.55155979786530  -15.00808443621660    5.73667789380223
O          -7.11214623298343  -13.98466995018506    6.38179696440298
C          -6.76721081292783  -12.67067544415200    5.94886319921161
C          -7.49397757443601  -12.27521622146702    4.67096262109294
C          -6.91238138301551  -16.33121351953798    6.19550746461061
C          -7.88591578255122  -16.49234147050836    7.33231235504448
N          -8.15801165289720  -17.86015363770134    7.71542378948132
N          -6.41232639968436  -17.39696689473082    5.64582586784812
C          -5.06682737851099  -19.63786993378771    4.14754186920241
C          -4.45760028670997  -20.60053207625558    3.45646145521078
H          -0.80571371711819    1.70635048168641    1.20955626760599
H           2.00846905705951    3.25484310973795   -2.07436260706763
H           0.43805687373048    3.47822852390638   -2.86287236015940
H           3.15425177164801    3.51336675592528   -4.29164293576209
H           2.17641063470296    4.94096984812004   -3.91794221006846
H           1.58977889177597    3.73768470813383   -5.07637463058150
H           2.47852390318040   -0.64545348803216   -4.16203266537040
H           0.90808303011884   -0.42293365050685   -4.92451409276507
H           1.81602899494768   -2.86369002761198   -3.59601322836924
H           0.36225002139763   -2.65767996751723   -4.30293202876029
H          -1.45733265416553   -3.48023372111484    1.10991646336577
H          -0.11000459071388   -3.58795258685753   -1.63282538211115
H           0.09866859768102   -5.87222886382219   -2.56003053557094
H          -2.11313088171149   -7.55373807969349    1.36840702672461
H           1.28272563157504  -11.44911885233769   -1.83475002477427
H           1.57813688247762  -10.48696239232869   -3.30176525988916
H           1.04658348480754  -13.00095368547741   -3.61022809535369
H           0.12880294430942  -11.87791722467093   -4.63045360593764
H          -1.24388035716092  -13.72599782546975   -3.44465255025261
H          -1.84452139735429  -12.05485038993187   -3.33588390657240
H          -1.68427853897294  -14.51046573722061   -0.13807135685378
H          -4.55598384242613  -13.22107074417791    3.51931456845379
H          -5.68374318793710  -12.61490682854402    5.80197595326232
H          -7.06157515320565  -12.02475861480964    6.77912323657087
H          -7.20103192881292  -12.93151708834941    3.85558560833928
H          -7.23482490833376  -11.25358506740174    4.40902515596356
H          -8.56979936061541  -12.34501065592366    4.81308891339048
H          -8.82878603791453  -16.00910285810134    7.05299587674841
H          -7.49688027151975  -15.95111309746679    8.20183341760253
H          -8.51958914233070  -18.36873708671381    6.91454250897081
H          -7.28939993702230  -18.31565088373445    7.97780388401463
H          -5.74328955170475  -19.87303992222990    4.95860224069080
H          -3.78420157901945  -20.36862756686949    2.64792328777698
H          -4.61553362704513  -21.64060898850360    3.67879793346960
