96
 SCF done       -164.934494907195          0.000546974240
C           3.05781103398349   -2.79038378997353   -0.96854812378245
C           3.80398013018950   -2.07971989314436   -0.12797342262855
C           5.21243697153050   -1.84981325277583   -0.27723525897176
S           6.12902080373632   -2.51054541864139   -1.61230773272965
C           7.56763991830364   -1.76686117517074   -1.00115222102793
F           8.72673930289417   -1.91490138823728   -1.64807315364977
C           7.37624718644725   -1.05678891358491    0.14647870286015
C           6.01568455024175   -1.11281755238547    0.55309101195902
S           5.45767462900883   -0.29075963721220    1.99953515073493
C           6.97249001590322    0.40799266725272    2.52050563099793
C           8.16798777679648    0.29190751020174    1.92537822397102
C           9.38617250012208    0.92732035540548    2.41824308953939
C          10.50747462270869    0.95145011676540    1.60340656108151
C          11.68762749687829    1.57429723820219    1.98785390375702
C          11.82513632115137    2.22055154979782    3.20564779535945
C          13.06506965392460    2.89883079625182    3.50347348089447
C          13.25792373906678    3.82375264759665    4.45626277294775
C          14.50545580109678    4.51898928894345    4.70767588983692
C          15.75528590769446    4.12009542149385    4.21464108506652
C          16.84280749017944    4.88638528065939    4.59655287050377
N          16.73207885509157    5.95966995629080    5.35744221949420
C          15.50509508027945    6.29346774404372    5.75025624472982
C          15.33032663643752    7.49792472611842    6.56265627526144
C          14.24422711745519    7.60620353097163    7.40981056393573
C          14.04542921693565    8.72470674232277    8.21220071029844
C          14.93436097210607    9.78846678824558    8.21090366550054
C          14.79606178861330   10.96800474243852    9.02146034415108
C          13.80453262252579   11.23662135575795    9.89251015426425
C          13.72160095298693   12.43790707082640   10.65190217080248
S          14.91940274753818   13.70924438307037   10.52143210110177
C          14.05588004144747   14.65168155521384   11.68896301521917
F          14.51218776109834   15.85152043482209   12.05197233378949
C          12.92634215650787   14.04916816220621   12.15682294183201
C          12.74199478361005   12.77593314739030   11.55435038077784
S          11.37645875732784   11.73543125661052   11.93831452568135
C          10.58530450151301   12.78314087541509   13.11457774525232
C          11.01325557190715   13.97889970173735   13.49679970178718
O          12.12235812264947   14.64779237314711   13.08294849056788
C          16.05975251695316    9.70699900778107    7.33706451634881
N          16.95126874648394   10.71490190508263    7.31367329894419
C          17.97667036573145   10.64970214579969    6.50208269063491
C          18.91404962713364   11.82076040058747    6.53184608505465
C          18.46957988840992   12.88262637702489    5.52295903507567
C          18.12309405861513    9.54964115632829    5.60965038488032
C          19.25861131184102    9.41600773399264    4.63908448636220
C          20.40094082307465    8.63490953428638    5.29290929386074
N          17.27032297090283    8.55907269307781    5.62487107872968
C          16.24828990082798    8.57783700463930    6.49716250055440
N          14.40315188582584    5.60330508255440    5.47676924696322
C          10.71271668727359    2.16327323256445    4.09617816425565
N          10.82267073952786    2.67448057390386    5.33399436512605
C           9.81582062797951    2.61998876842369    6.16720921341540
C          10.07108163449908    3.14924351961379    7.54678760909807
C          10.57745291270587    2.02322437948654    8.45175887928963
C           8.59132987647674    2.02224909404187    5.76795251849092
C           7.36618098062262    1.97938787155056    6.63211728354022
C           6.55003930501207    3.26198558496649    6.45197633173093
N           8.47241060400597    1.49406070502479    4.57577638666875
C           9.49876061149794    1.52924483043062    3.70573143578215
O           8.39921463226679   -0.40868746770506    0.75741934492320
H           2.00410804819470   -2.92915281275450   -0.80842484305895
H           3.48650176286362   -3.25279626790039   -1.84231704729638
H           3.36786227025101   -1.61627947630276    0.74797555637143
H           6.88706631371819    0.96908695505079    3.43327924048614
H          10.45780243691966    0.48520899569711    0.63209757547814
H          12.51918087901118    1.57409144051754    1.29742236762688
H          13.87778377418449    2.64550346445668    2.83243809699038
H          12.43822137941714    4.13096106785934    5.08588837938498
H          15.87321096696740    3.24656719564362    3.59549337014002
H          17.85010779557014    4.63124126974744    4.28910046721067
H          13.54200722071635    6.78726177024254    7.44324093974221
H          13.17976814902512    8.75302322845770    8.85618978820295
H          15.58389533629677   11.69835277072624    8.88674286288846
H          12.99502777580190   10.54013900903541   10.06614712305207
H           9.68589487752994   12.35494494079737   13.51620323999509
H          10.47534792718023   14.56762880903675   14.22516813479820
H          19.93380472431940   11.50263690085662    6.31499138057991
H          18.88405407462118   12.25185107740872    7.53354209315287
H          18.46472980792968   12.48250183561294    4.51109449569319
H          19.14244806507422   13.73618154555317    5.55552605760918
H          17.46458214478781   13.22163976785300    5.76168601081223
H          19.61150265674672   10.39201329562592    4.30687165972882
H          18.89741082179795    8.85423282159622    3.77701584376576
H          20.77378735079506    9.15436650815919    6.17373038988092
H          21.22190543105526    8.50891243075748    4.59095746950857
H          20.04267316341907    7.65462613119701    5.59637188841067
H           9.16657579414444    3.58836862151896    7.96741444216916
H          10.83996847906536    3.91972591993310    7.47837003495886
H          10.77431867663254    2.40442675691956    9.45069767002733
H          11.49902947604153    1.61102910224952    8.04817078288275
H           9.84556283780946    1.22104604776679    8.52396800742985
H           7.63857122175478    1.85691113102055    7.68016491254985
H           6.76155154645834    1.12494388204862    6.32444561183064
H           7.13395672815797    4.13707099529780    6.72940578353090
H           5.65804806793395    3.22866584783679    7.07262045189821
H           6.24667777226408    3.36951648898010    5.41320577070547
