115
 SCF done       -212.078631292655          0.000791034830
C          -2.79161376293714    5.75564043095309   -1.66949278188781
C          -3.77194157123196    4.62496323038708   -1.94613829241174
O          -4.84283921918550    4.70254221438668   -2.46543724915399
O          -3.25254133700277    3.46587064613367   -1.50131679874892
C          -1.92344206458820    3.64175108900907   -1.02510962759299
C          -1.84346996483772    5.13353348562692   -0.64639612722221
C          -0.43603809057304    5.71607022384974   -0.59546499633069
C           0.39458136837731    5.37370450124319   -1.82574321913344
C           0.42761157919263    3.88600790447769   -2.15593434672619
C          -0.94557079914861    3.19191219424267   -2.13551601127829
O          -0.64702363709126    1.80992068374479   -1.97216318278448
C           0.58465703075728    1.61114932230379   -1.49009845000114
O           1.04214426463476    0.53382623121413   -1.26678093802837
C           1.28372718156991    2.96523237694899   -1.26787639676488
C           1.25772658774474    3.25285638295210    0.19162652779146
C           2.34365837037060    3.53100097834394    0.91908398025709
C           2.25228325622549    3.82929621830804    2.31815780743073
S           3.65717601858302    3.95334256188547    3.35672832797195
C           2.50948039261642    4.32001586917061    4.64174672116009
N           1.27667978257488    4.32433783096779    4.21872350604461
N           1.13544745438000    4.05728076591161    2.95034311663273
C           2.92932786323441    4.57362342790137    5.97540083189288
C           2.04939283560600    4.88272885087905    6.95850251207193
C           2.45675747706428    5.12877641966206    8.29530962682880
N           1.58819482519273    5.43941318100864    9.31373250906952
C           0.14961907129042    5.51719976645300    9.22693685104782
C          -0.49536442289098    4.13366968025335    9.21799602594607
C           2.25554341976253    5.62756123652820   10.53738948292871
O           1.69006192648908    5.88662267174906   11.57910331706723
C           3.65408035563107    5.43482889301379   10.21362825925920
C           3.74231443367293    5.12070029200486    8.83376737807327
C           5.13638661678585    4.90108841005164    8.51732763104307
O           5.70185468859015    4.61085348681086    7.48119614653386
N           5.80316144263904    5.08976640075528    9.73937241577085
C           7.23792534505506    4.97509056426149    9.83683466526658
C           7.91703867313128    6.34240493487670    9.84823027572978
C           4.93565227164374    5.41842690928057   10.75317743881356
C           5.34338248377794    5.66662222588393   12.09323611459058
C           4.48130001492111    6.11087666365650   13.03155067510626
C           4.80984665465836    6.38625385217336   14.40549560487260
C           5.59329597289159    5.58090063267014   15.26168653379508
C           6.11658044861453    4.24724980121049   14.89141174340825
O           6.01457488946691    3.66265596156777   13.85435106700143
S           6.97029734836845    3.53166179894917   16.29771279373134
C           6.63874699531056    4.94371334257709   17.34851643512570
O           6.99196355327769    4.99338117900463   18.48731233770290
C           5.85810036588724    5.94190908489758   16.58540430261456
C           5.40254399316145    7.14140590934176   17.16444478295151
C           4.54927872802861    7.88975690888124   16.34038835048124
C           4.26953490831117    7.52203369522129   15.03011462819801
C           3.36582749741379    8.54850713653001   14.46202096128346
O           2.96322335769333    8.69978227664915   13.35341775062799
O           3.05438571058581    9.41609946965667   15.49014959274010
C           3.71096965599007    9.07957324187531   16.64283651260610
O           3.54475910282359    9.67179547756648   17.66538611917533
C           5.77391891979891    7.56996790601231   18.49548940326097
C           6.05516096560044    8.84081599979171   18.78908583127543
C           6.41467080898816    9.31074263640101   20.15382977610791
C           7.65659351492985    8.61021591133060   20.73801111463918
O           8.64879318905855    8.31032202925605   20.15056934209167
O           7.46638627394684    8.39143696950671   22.04462194004306
C           6.23370475380033    8.94705862559761   22.49470629877019
C           5.36276302543840    9.00885864188163   21.23065198355253
C           4.19028832139296    9.97776164214855   21.28913507605364
C           4.59117452194354   11.36242200564317   21.78035902873270
C           5.38014519559733   11.35149650114399   23.08577228922095
C           6.51845758925150   10.31590381850285   23.15401223887818
O           6.75493355793941   10.12748253298102   24.54247294654775
C           5.71625007104745   10.53452989660117   25.29227902522595
O           5.69700624957505   10.44267416214431   26.48106430323969
C           4.60998385014163   11.09358175686853   24.39302350283097
C           3.49816331376292   10.08794035861374   24.34379897211281
C           2.23001771709375   10.39633018880967   24.54377657471666
H          -3.31552640019770    6.63824385183065   -1.31021995370247
H          -2.28681731749936    6.01082887616617   -2.60265732595814
H          -1.80761707698146    2.97710187355428   -0.16462097629849
H          -2.29459451236595    5.24231447453120    0.34581106603417
H           0.06590488643708    5.35625244908842    0.30233897202850
H          -0.51497200857888    6.80145857080389   -0.51094304833029
H           1.41733176184905    5.72397757808674   -1.67864538585416
H          -0.00708300939562    5.90077912440231   -2.69400215703209
H           0.82315611277539    3.78005824078345   -3.17334139658421
H          -1.46567681921756    3.29032117022669   -3.09466892831416
H           2.31788523049264    2.91242621363324   -1.61300806465292
H           0.30445148386123    3.19403827986756    0.69536626232318
H           3.33139159486472    3.55106487178276    0.48243154263430
H           3.98878583218101    4.50496246294495    6.18016038323109
H           0.99980778185104    4.94426725068117    6.71184623355402
H          -0.13164639924061    6.08313741971777    8.33493302039356
H          -0.17596096063588    6.06867834171954   10.11337741029637
H          -0.16137082403069    3.55222370004495    8.36177363769980
H          -1.57609653101627    4.23362131985809    9.17236188097219
H          -0.23407245112293    3.59611070987004   10.12614245472977
H           7.55699080384609    4.41549429282746    8.95311143287229
H           7.49678295656042    4.40029169825998   10.73015071532625
H           7.68509055949513    6.87957789048656    8.93183391976202
H           8.99423466066262    6.21772699224538    9.91413280644893
H           7.58037934356489    6.93961793628428   10.69301379449246
H           6.38459187107730    5.51080857038014   12.33268544055901
H           3.46618240485951    6.35759107380217   12.74224358970263
H           5.88392154745051    6.79343991015689   19.23877246426994
H           6.04883067928724    9.58891833799374   18.01052484643449
H           6.63944913819328   10.38080907958215   20.12758367838457
H           5.84121212624811    8.26559435859590   23.25451192104005
H           4.97130838222436    8.00362512374940   21.04261491968144
H           3.42508515308386    9.56679420814055   21.94719611054115
H           3.76068096020652   10.05770901844811   20.28882389949041
H           3.69306828703068   11.96513568019372   21.92087134756308
H           5.19665950648359   11.85783138456393   21.01868438191381
H           5.84659723549063   12.33779893701413   23.19817167429623
H           7.44889910110391   10.70445282012454   22.72505335861977
H           4.22253303619069   12.02216579711844   24.81639074476875
H           3.79203659691634    9.06036961093599   24.17807709885675
H           1.91430298552462   11.40836097052827   24.73439585213890
H           1.45536910701950    9.64962902001321   24.52481748573758
