116
 SCF done       -202.132271891529          0.000637416565
C           1.79251551828369    5.25937616800146   -2.60620334312750
C           0.41825676656950    4.95217542815285   -3.18419160737121
O          -0.07805651259094    5.41441342508818   -4.16513122849996
O          -0.20252778676062    4.04923792869828   -2.40166072672287
C           0.65392879555068    3.59013994882230   -1.36314672148069
C           1.67833978083593    4.72606292115366   -1.17986306896181
C           2.98071533352384    4.31435573257936   -0.50465185683570
C           3.60057330171864    3.06643592117132   -1.11936697174805
C           2.63983112254316    1.88711702114492   -1.21476495772371
C           1.25233958239205    2.22844528264462   -1.78649616371365
O           0.40539499338278    1.18144047849451   -1.32854769021809
C           0.92749551545826    0.53069225201203   -0.27897013861577
O           0.37108159797121   -0.36302701973073    0.28112738177840
C           2.29512097214504    1.12811867749152    0.08005523425817
C           2.12133116175017    1.94636826789744    1.31872958844958
C           2.95208634002929    1.88266982668177    2.35935588966248
C           2.83224529422552    2.64255865953939    3.59194770045728
C           3.92907203176460    2.72588402384802    4.44561931617077
C           3.86323350726563    3.44940530535963    5.62468135888575
N           5.01157335554325    3.40740471095797    6.49278914038218
O           6.08194023782583    3.14668513993397    5.98513125293414
O           4.83499897168697    3.59844538604908    7.67702970863052
C           2.69760820935432    4.13411925484151    6.00659257107620
C           1.59422863212496    4.01605615455409    5.15248371034291
C           1.65498832832965    3.29267178174805    3.98330888683179
C           2.64256449645019    4.97459858456036    7.18101143739790
C           1.56327003400247    5.06792499764340    7.98407032833486
C           1.54302219818702    5.92480943459299    9.12218159159647
N           0.54161474212852    5.92585018365423   10.06646941158608
C          -0.66929866960259    5.14416710245857   10.04272445506407
C          -1.71343742617247    5.74432096426486    9.10314920106561
C           0.79989042046281    6.84014775714333   11.10928337764357
O           0.06010233363396    7.00281597556733   12.05886280079170
C           2.06054158747462    7.43727371362708   10.74324650276567
C           2.48740496700748    6.86205062998723    9.51917121289099
C           3.74652486523801    7.47738099966468    9.17147679504920
O           4.48319836859367    7.33384462257386    8.21547395845015
N           4.01049918054071    8.37634921237819   10.22592589853463
C           5.20470238578346    9.18686051563131   10.18545533518914
C           4.92221783627646   10.57635290562004    9.62138450720955
C           3.00691577153794    8.36325187710589   11.16715112614671
C           2.87875086449542    9.06634677836938   12.39994149599017
C           3.63326858075199   10.05240670213859   12.92839737701484
C           3.40569269986500   10.59839168431555   14.24347824045680
C           2.69242339416336    9.97217889269790   15.23465636770014
S           2.70469618428155   10.82385443596190   16.71904416068288
C           3.68575021154714   12.04876069669171   16.04898021538007
C           3.97971252785849   11.82279802799627   14.73310935451523
C           4.77407691799067   12.80582189695691   13.98498165265066
O           5.57539697042136   13.55821581216754   14.47779882713146
O           4.46476560083236   12.81387840551075   12.66422920973138
C           5.20277137959275   13.62274452573956   11.84352972171815
C           4.77075529506251   13.95019100723233   10.63420403107934
C           5.58974200526720   14.76471184865444    9.68623862521617
C           7.02383621635143   14.23203255601050    9.55447084326190
O           7.36240121886607   13.08733228883277    9.54536969067298
O           7.87841771396845   15.25725222632386    9.45628421166172
C           7.18947285879233   16.50380927980728    9.41528736240639
C           5.84804076497508   16.21907275463118   10.10932176227493
C           4.73977999911030   17.21487039670731    9.79670785612973
C           4.56903187844154   17.46453824122032    8.30397939624189
C           5.86425415894103   17.83793196438604    7.59142245853185
C           7.07699609590182   16.95546744892654    7.94098578919465
O           8.20871998373606   17.74552149536051    7.60410018887593
C           7.90512356048859   19.05139694950935    7.51083914543339
O           8.71325573895373   19.89144911704154    7.26044296938217
C           6.41326524441725   19.26197293271957    7.78786264878716
C           6.27571485178755   19.86678154140838    9.15371668433870
C           5.53223563627060   20.92818701108204    9.40739025357479
H           2.00588909500062    6.32403314911093   -2.66708324144155
H           2.54189030147033    4.72362548335089   -3.19098259073968
H           0.02443100925857    3.43651163267906   -0.48208856288210
H           1.20249104546241    5.50012071383747   -0.56698228005386
H           2.79289422655698    4.14351788866551    0.55545044453727
H           3.68925678207392    5.14082105975415   -0.58191697197262
H           4.46670961584248    2.76725717496799   -0.52737403432106
H           3.95772578912376    3.29488227846625   -2.12568878428542
H           3.08737638136359    1.14798711372886   -1.88984717969970
H           1.24135670799755    2.18838643530483   -2.88107973979328
H           3.01272300723669    0.32944053458017    0.27642704274475
H           1.24871008338519    2.58333462243730    1.34570626131251
H           3.82380753121535    1.24413800459054    2.29815220089744
H           4.85204917817051    2.21738052155246    4.20751195798927
H           0.68320065654603    4.53261457374477    5.41343352458997
H           0.77273676591225    3.21763131324257    3.36711330174711
H           3.52452034121531    5.55588533130656    7.41884884493200
H           0.70100538803914    4.43909664361362    7.81070848787729
H          -1.05363050234472    5.15184127628629   11.06667302453950
H          -0.43701563644578    4.11314922536877    9.76135984244017
H          -1.96950744378583    6.74926109951503    9.42942262187246
H          -2.61328110808344    5.13551911438677    9.11299345586783
H          -1.33696792883618    5.79846051879418    8.08386267236401
H           5.90171046004350    8.66465453900457    9.52359427378515
H           5.64464002358776    9.23879289137567   11.18349245691019
H           4.57145409218718   10.48758721530169    8.59590915043107
H           5.82863066751684   11.17591074005429    9.62934612732851
H           4.15704764470320   11.08184640691689   10.20616003462585
H           2.01587786628845    8.72306171343487   12.95673632353999
H           4.45294640268029   10.48834474584009   12.38236488394545
H           2.17892475296570    9.03353388402636   15.17767917961454
H           3.99028935242761   12.89231403947047   16.63615819386201
H           6.14772125706620   13.95220226966257   12.25923667613189
H           3.81066413686383   13.59404728286650   10.29521239090878
H           5.13719942810872   14.72821524352161    8.69128522125951
H           7.80936905798365   17.22316304978344    9.95731711684671
H           6.02149405675473   16.22142732777032   11.19101997381655
H           4.95969632715674   18.15670454554649   10.29886158373078
H           3.80414070842438   16.83284516681433   10.20866139476259
H           3.84502246290449   18.26701985311963    8.15527119539215
H           4.16394168828290   16.56876865837473    7.82819984016563
H           5.69304284156479   17.72459125515907    6.51403356473434
H           7.12065792848779   16.05713032925931    7.31512090321979
H           5.99426554926748   19.95445885034087    7.05538837602858
H           6.86670633333225   19.41282941947619    9.93763305554821
H           4.95616991955121   21.41592644665827    8.63893308811079
H           5.47341905928227   21.35610934386327   10.39302895231575
