87
 SCF done       -176.494463703584          0.000591296102
C          -0.84283826911145   -0.74132196943987   -4.02644010436127
S          -0.75010976142802   -2.41447779680889   -3.76415355646384
C          -1.01506951280451   -2.21662042308345   -2.04588027483509
C          -1.19852397328058   -0.88062280825837   -1.72963716502953
C          -1.08392241214878   -0.03367245735676   -2.88204695564444
C          -1.21291213367413    1.45023369162460   -2.93295445213247
O          -1.15368693965063    2.04937883983161   -3.97329860021627
O          -1.39730458172910    2.07828494320345   -1.77207025475077
O          -1.49572152462641   -0.30453354088550   -0.54465446556324
C          -2.11428523645033   -1.04251228221553    0.49512748027306
C          -0.91391024669732   -3.38731198864223   -1.23515257170460
S          -1.14261691003115   -4.99419142232808   -1.91507468742920
C          -0.76282250259612   -5.58701221200709   -0.29369301468677
N          -0.51618066042631   -4.62175389950424    0.53796378973827
N          -0.58680292986831   -3.42379013097982    0.02388341965963
C          -0.74837993941941   -6.97809559948730    0.01108886399671
C          -0.54305721764091   -7.41919653839581    1.27425095325374
C          -0.51533241658206   -8.74785340071023    1.77808000756440
N          -0.47520902028698   -9.94760874710150    1.10500281412336
C          -0.43227658528962  -10.19185563972909   -0.31644152036552
C          -1.83446186874100  -10.26729008888080   -0.91751492980921
C          -0.47418924801534  -11.04433664936247    1.99161437660442
O          -0.40025218107388  -12.19840111987796    1.62306271947605
C          -0.53574717181979  -10.44860184781570    3.30762611024270
C          -0.52817624850947   -9.04341061345298    3.13886698118526
C          -0.55734976943769   -8.43034903896112    4.45044243210555
O          -0.55628638964729   -7.27596224643350    4.81453485443307
N          -0.57508687565417   -9.52996385277723    5.33723533856301
C          -0.62828453276327   -9.33674806436259    6.76574486210070
C          -2.04712123079966   -9.49232836472817    7.30794807963351
C          -0.58273054552064  -10.72848936999411    4.67066480517218
C          -0.64554302338788  -11.99695437888437    5.31455331954410
C          -0.78359504958864  -13.13752990912712    4.60771189563305
C          -0.89659685895484  -14.46688175413581    5.14944809201374
C          -0.12653794810057  -15.03082274192690    6.18820389691237
C           1.01110516847287  -14.34700401918180    6.83804757965849
O           1.44439112580868  -13.25168687483237    6.63864743395567
S           1.74878655301049  -15.44592757151024    8.05243765465023
C           0.57639066094453  -16.75987452984552    7.72383354589003
O           0.58013729643693  -17.79037525000989    8.32922821642673
C          -0.32502276539494  -16.34214373963269    6.63235745447841
C          -1.30411888273197  -17.20249859645469    6.09678042834494
C          -2.01011944210375  -16.66116011333763    5.00854916101029
C          -1.81345746834044  -15.36028394477947    4.57013855088133
C          -2.74603607952174  -15.12614834422002    3.43899037935691
O          -3.00074551370992  -14.12639137306499    2.84592643065211
O          -3.35493758328824  -16.32808196524201    3.17095035913364
C          -2.94921700719421  -17.30380670095437    4.04893108007538
O          -3.29056336503632  -18.43886040114101    3.94005339978539
C          -1.56388283991686  -18.52218038300814    6.61090794362973
C          -2.81102398169050  -19.01968072054660    6.70823458149537
C          -3.12861884626272  -20.32248246631423    7.18615059577805
S          -1.89747847086934  -21.51059070652820    7.45767045339189
C          -3.06218334033154  -22.69230833412571    7.88652095029303
C          -4.33849276689720  -22.20935690264113    7.82818152002072
C          -4.39535279942850  -20.83656993607858    7.43284962182301
C          -5.63539146214064  -20.02481766098722    7.31551072204594
O          -5.62958268916296  -18.83363412609049    7.13400020861671
O          -6.78932776312057  -20.68398269972968    7.43115243319423
O          -5.47671127424748  -22.90563558229611    8.10283318872092
C          -5.34140471413207  -24.25588965382010    8.49281245888105
H          -0.72666853425010   -0.32599891263415   -5.00810036845673
H          -1.43478905203128    1.45635469946229   -1.02351161824758
H          -2.98170281945584   -1.58796338460570    0.11566685369611
H          -2.43478004161775   -0.29798470995100    1.22130174174627
H          -1.41630717955619   -1.74722031942367    0.95165648998169
H          -0.94063914682013   -7.63479180926255   -0.82146194776083
H          -0.41376292292333   -6.66824481665119    2.04413285640129
H           0.05865704287809  -11.16198109396294   -0.44233000745924
H           0.17877072966170   -9.42589070279344   -0.79837480224311
H          -2.37276023388525  -11.10356765307751   -0.47860437290459
H          -1.76937010454897  -10.42096299496890   -1.99125671423436
H          -2.39848267208458   -9.35746684864276   -0.72310779155666
H          -0.27921471151808   -8.31597079683986    6.94540039968084
H           0.05729055693343  -10.03567996207446    7.25226463594657
H          -2.70310430733846   -8.75938669138462    6.84481586340668
H          -2.05010552217055   -9.33067423698799    8.38225141095651
H          -2.43889950021132  -10.48602548879187    7.10138138139298
H          -0.61613881859939  -12.01270415988611    6.39344296828670
H          -0.90146154794219  -13.07599653740104    3.53186247196758
H          -0.71906373255562  -19.08404494968029    6.98578061293898
H          -3.67067316818618  -18.41628585137477    6.45374688090031
H          -2.73273979266973  -23.67573294797138    8.15345626636787
H          -6.66182509876116  -21.62897607036243    7.62084518492440
H          -6.35418041063781  -24.61578789261636    8.66251094613570
H          -4.76138828150988  -24.34254093294472    9.41515094536791
H          -4.86828076343056  -24.84678891570201    7.70402082134004
