88
 SCF done       -163.631568930775          0.000821989513
C           0.09880440978650   -0.66147055630236    5.04011912165691
S           0.24198772671414   -0.98084109589400    3.36901855206496
C          -0.60882558623251   -2.48827926459598    3.53446244880821
C          -0.97244043700277   -2.70033959554496    4.84829517443411
C          -0.55688290490376   -1.65227335691598    5.71753469810177
C          -0.75759407852534   -1.61617126065493    7.19190089516439
O          -0.58927907271299   -0.62216443761544    7.84319267329078
O          -1.13110073303392   -2.77316072305270    7.74754145236873
O          -1.65816596616723   -3.82178447397870    5.26011748801392
C          -3.07652847456119   -3.67296212347697    5.25602404839722
C          -0.82459689358355   -3.36837606205268    2.43445036555296
S          -1.51195655029007   -4.94649329140501    2.67434585188080
C          -1.39552858936020   -5.31387531163575    0.97944535364792
C          -0.84073304567868   -4.23513994330724    0.28253522741365
C          -0.52133567678535   -3.14616820412786    1.11222931491471
C          -0.61817009418539   -4.19017149090691   -1.10283139831408
N          -0.42517823979351   -4.11042850615704   -2.23196799311451
C          -1.84205721327635   -6.57771096428598    0.52873937614573
C          -1.76588034308083   -7.02358099444613   -0.75501074262313
C          -2.22417769459334   -8.30281849996585   -1.14261191025955
N          -2.15142048935828   -8.77617788415588   -2.43110716773427
C          -1.67089017447637   -8.05881793289343   -3.58837676518837
C          -2.69691544637442   -7.05346745592952   -4.10400768165401
C          -2.65922446598181  -10.08096439045591   -2.54217330943098
O          -2.69256942792591  -10.70082623552740   -3.58720608117569
C          -3.06783046796243  -10.42336552763077   -1.19670218457888
C          -2.79235009917742   -9.31566797088512   -0.36416432025735
C          -3.20234423371436   -9.65577968045005    0.98178804822347
O          -3.17281271100355   -9.02664769435098    2.02270026973775
N          -3.70464815418839  -10.95920037961868    0.87367318584696
C          -4.17411776555283  -11.68042671943299    2.03330899840724
C          -3.12766895277421  -12.66118584909371    2.55587161305298
C          -3.62903461476957  -11.44019627131063   -0.41498851087851
C          -4.06100228746442  -12.72544601359369   -0.79887938022740
C          -3.96925949723806  -13.18224229980033   -2.08197487058379
C          -4.37762658318065  -14.47127794145580   -2.49473108707971
C          -4.89953324322298  -15.50714425936964   -1.74390431153543
C          -5.14394236788817  -16.62498554657834   -2.58788022135099
C          -4.74021804852864  -16.20767663203860   -3.94612140930045
C          -4.28743743748333  -14.93011282877454   -3.87499343507921
C          -4.81198183650604  -16.97354399693424   -5.11481806951444
N          -4.86238362037211  -17.57458488153867   -6.09272409352743
C          -5.63767817974558  -17.85471610049092   -2.21992945238463
C          -5.82230403682026  -19.00231213457906   -3.05173903048024
C          -6.26533007190153  -20.04709991574752   -2.28286637372572
C          -6.43270626550270  -19.57135406234245   -0.91814555969473
C          -6.05946830115537  -18.26424558134011   -0.87062664659640
C          -6.11129805260406  -17.45264999632193    0.26671765647440
N          -6.16884220548204  -16.79205753535008    1.20597968307541
C          -6.55319332703927  -21.36458649224016   -2.76277835589963
S          -7.20328076614784  -21.53798227550355   -4.35835003037244
C          -7.30662966965651  -23.24320090061143   -4.18772250663451
C          -6.85313809587247  -23.66634226405025   -2.97310902883311
C          -6.40232849924470  -22.59260020614080   -2.13955530135547
C          -5.70231935011468  -22.74922721985207   -0.84161647937434
O          -5.11542757795231  -21.84620439444312   -0.30223255808475
O          -5.72831070278721  -23.96793455538131   -0.29338007173457
O          -6.80598664587151  -24.95483004023141   -2.53117743439499
C          -7.19316902451071  -25.96855662822584   -3.43408393652628
H           0.51234851110272    0.23208471127963    5.46314854555193
H          -1.23158423279956   -3.48357824447348    7.08525869759484
H          -3.47668263481395   -4.64366954983239    5.53887003603578
H          -3.44020196701086   -3.40202714482928    4.26224523985757
H          -3.39401638572155   -2.91303884169767    5.97594565415183
H          -0.08556416440227   -2.23041847651950    0.75304574662177
H          -2.26888274468821   -7.22403369327569    1.28558957295945
H          -1.33496516916262   -6.39462745575834   -1.51833029718642
H          -1.48204499154414   -8.81658460693673   -4.35391596020125
H          -0.72955617644337   -7.55842459147497   -3.34600966912319
H          -3.61947624183628   -7.56442983783594   -4.36903656296393
H          -2.30666419000836   -6.55616150825839   -4.98707348772407
H          -2.91825099315449   -6.29947078867292   -3.35217555797250
H          -5.10498420525095  -12.19911549543507    1.78944733088358
H          -4.38140786422896  -10.92418509190100    2.79552571121765
H          -2.86845260730287  -13.39734472367923    1.79845266344178
H          -3.51598670360126  -13.18095271648701    3.42697696505649
H          -2.22550243813802  -12.12581505330612    2.84200069732325
H          -4.48004385478114  -13.36559089022720   -0.03662835613878
H          -3.55585849806053  -12.53420005972597   -2.84368952065069
H          -5.08800361142468  -15.50138413523647   -0.68927770348786
H          -3.91881013038305  -14.33094123882183   -4.68715415953176
H          -5.60071348318767  -19.04283987705164   -4.10047698056617
H          -6.81360391857142  -20.15334707539376   -0.10253881080567
H          -7.69400110641692  -23.82588003764068   -4.99815580367680
H          -6.17013951065491  -24.61991626851020   -0.86324285766667
H          -7.05015030755308  -26.90727372429764   -2.90271442886574
H          -6.56902590230174  -25.95443635339582   -4.33127745887137
H          -8.24397232278104  -25.86236837953345   -3.71656303240136
