89
 SCF done       -146.240357993130          0.000641524689
C          -5.70428127348426   -5.12574054690158   -7.50599435836672
C          -5.54752300962484   -6.14558811326321   -6.60277732696336
C          -5.81328138680517   -7.58617998697838   -6.85707411159852
C          -5.08227836148693   -5.62463229632586   -5.33558820105926
C          -4.96468966996015   -4.25912328941894   -5.50502091719640
C          -5.34886441490909   -3.91105855602140   -6.87550326347241
C          -5.29001721567766   -2.59890925872564   -7.25718681718867
C          -4.86069157347466   -1.65223766228331   -6.30137682851105
C          -4.52132197298323   -2.05913170159006   -5.04465458797830
O          -4.56359942624677   -3.31951816231280   -4.63188176901718
C          -4.80007538877423   -6.41598668519243   -4.17977744020650
C          -4.42438264686409   -5.94383235704379   -2.97384032286062
C          -4.12359536034636   -6.77203944943354   -1.85458323456614
S          -4.14624273612808   -8.52163569885208   -1.96431046122304
C          -3.66742536053092   -8.70610969377558   -0.30269658068445
C          -3.51699329137138   -7.45528702167817    0.29548957168320
C          -3.77306248980782   -6.38140786776448   -0.59031123752627
C          -3.17675154893676   -7.23834722879462    1.63446458022838
N          -2.90735508655324   -7.02680605036648    2.73391788060909
C          -3.47388615222736  -10.01158328511857    0.21437648770744
C          -2.99868229571192  -10.25324645398814    1.46018454060562
N          -2.89014136833149  -11.46721515243670    2.02867687942627
N          -2.97884833665339  -12.64611857012354    1.30885732551612
C          -2.80141874671657  -13.72425231095525    2.27919543172587
C          -1.76949793596098  -14.75408476513021    1.81217614039202
C          -0.43898567497132  -14.11813869352330    1.38614462509087
C          -1.64214980446413  -15.83512106429738    2.90801612576001
C          -1.56214228318207  -15.25042810057973    4.36591001500065
N          -0.48266082612682  -15.92221430799038    5.06715034081855
S           0.69723229472030  -16.28399964321556    3.88333914021800
N          -0.46995252280085  -16.66450481828609    2.67052649441436
C          -1.29695085197616  -13.73999654421579    4.38345246593989
C          -1.21514896146334  -13.24810091217872    5.82693484555660
C          -2.40542834244826  -13.02526779458226    3.60879016621487
N          -1.99857356448264  -11.69542493707431    3.16566474803606
C          -1.98617696577964  -10.66739351888487    4.08515315820436
S          -3.28317791755789  -10.38810484287723    5.25298037819829
C          -2.50111353708808   -8.95622233631236    5.84478679202962
C          -1.31621514140287   -8.71802000288741    5.15364502581529
C          -1.04593382151664   -9.68594874980539    4.15868661732170
C          -0.42594817811149   -7.66267478134437    5.39364152161807
N           0.34844986019763   -6.83179689041624    5.57095054651033
C          -3.10906341226877   -8.24084912823957    6.90692073671782
C          -2.61143872514748   -7.10016099347783    7.44583892299715
C          -3.18490857421901   -6.37206804978499    8.50761503954924
S          -4.67172225454992   -6.83317426157118    9.28269550507120
C          -4.60948168671755   -5.51614355781569   10.36306000086443
C          -3.49748104860794   -4.72571141884913   10.16718678394786
C          -2.67143545706210   -5.21000272202049    9.09968006787232
C          -1.48998590422378   -4.52468813846902    8.76506123534081
C          -1.15203714726077   -3.40198466115525    9.47282704771004
S           0.31328329276156   -2.48736231636282    9.11972967508951
C          -1.96610355977139   -2.91908274295535   10.52948678112763
C          -3.11369633948988   -3.55951215688337   10.87388754632630
H          -6.03759595585088   -5.21935869508529   -8.52203456342764
H          -6.16011794386400   -7.73456582242842   -7.87654904973223
H          -6.57158536401302   -7.96007934630577   -6.16935989680706
H          -4.90792589640844   -8.17364036170983   -6.70503641169568
H          -5.55768716437723   -2.28270709077180   -8.25391664303394
H          -4.79658869550055   -0.60772397547406   -6.55457493971390
H          -4.18597738391224   -1.38302573022472   -4.27190404447826
H          -4.89774683918921   -7.48716437587013   -4.30295837158682
H          -4.33067427671203   -4.88059254093582   -2.80483691210367
H          -3.69907473169862   -5.35032034635995   -0.29061072073258
H          -3.73190542854136  -10.83612662831943   -0.43301011370043
H          -2.73589087358858   -9.43855927570140    2.11573053115205
H          -2.25738780233986  -12.69166308335571    0.58524193830458
H          -3.76854043946944  -14.22548282572095    2.41136497993725
H          -2.18456636122772  -15.26366265908877    0.93592154671498
H          -0.26923965176091  -13.15977622449465    1.86961457125001
H          -0.42025503244602  -13.96514768634245    0.30882297160722
H           0.38289115243412  -14.78335877284739    1.63100480717620
H          -2.53759156413371  -16.46492696327508    2.84125697279041
H          -2.50118880914924  -15.44373668769576    4.89533565177879
H          -0.79121518425644  -16.76089945611099    5.54956218025639
H          -0.68789404646347  -17.65481485734955    2.67998582621025
H          -0.33023482646236  -13.55985385853312    3.91220012893817
H          -2.18164980655376  -13.33133619132554    6.32041751300426
H          -0.89550958949421  -12.21056786657061    5.85874217795154
H          -0.49229931133066  -13.84966898470273    6.37044964845568
H          -3.29734113788471  -12.95200858475762    4.25407854586899
H          -0.17440320580506   -9.65650911282435    3.52909881120501
H          -4.03353060340397   -8.65256095760398    7.29193627921817
H          -1.69554639132261   -6.69300571034854    7.04596875113364
H          -5.38840269395471   -5.38540345610958   11.08780292692821
H          -0.86502297250153   -4.88473899520030    7.96175656281530
H           0.72792474926769   -3.25761705267414    8.11584906636371
H          -1.64864762089777   -2.02937830874340   11.05166122028400
H          -3.73752419279945   -3.19719726463634   11.67646432876143
