116
 SCF done       -202.145272744730          0.000568752110
C          -0.49179216858564    0.05200651799692    3.73122190670644
C          -1.60342319349541   -0.74127065133913    4.40453388105352
O          -2.26029215585575   -0.41547472150094    5.34505087330863
O          -1.76169434317511   -1.91760011847722    3.76885470437579
C          -0.78007249756033   -2.09534817530223    2.75667935050896
C          -0.33357243442819   -0.66697012554017    2.39399345024712
C           1.03709793484665   -0.59084899497861    1.73422090924527
C           2.10581886278776   -1.33944536287596    2.51882328785267
C           1.74728360407400   -2.80342242254426    2.74923157971597
C           0.32856669067907   -3.02638459309963    3.30733648347279
O           0.00477175928487   -4.36541375247826    2.94890393846171
C           0.71237919814531   -4.77697452314587    1.89182588392512
O           0.54712014246644   -5.82761491912654    1.35128304783402
C           1.75363960681923   -3.70790675006725    1.51613991353787
C           3.03329838754020   -4.38374353314999    1.14500155028732
C           4.24643273212675   -4.09104383102551    1.60771753726646
C           5.46940433082888   -4.81076330944857    1.28640070821205
C           6.69492777651020   -4.25265548973253    1.63352245386846
C           7.88419095278467   -4.92587754064396    1.38996346059316
N           9.10440746034682   -4.23573359861048    1.67633503037441
O           9.05524998447579   -3.27522319802854    2.41759367691205
O          10.12654059913572   -4.61783525367424    1.13290456966958
C           7.89749166061397   -6.21061498478671    0.81924536753733
C           6.65839833708089   -6.74078111882641    0.43957577114115
C           5.48060235311867   -6.06571899225136    0.66175875971314
C           9.09993622099468   -7.00478253053006    0.72059066815999
C           9.39026906339957   -7.81333625034089   -0.31747359141679
C          10.58135269902396   -8.59566404036372   -0.34816081652461
N          11.03568654512283   -9.25082410056063   -1.46270054349780
C          10.38891774649627   -9.31249066760536   -2.75014478723477
C           9.25089527121752  -10.33019110893322   -2.76360731980151
C          12.29307494311057   -9.82904242673399   -1.25233102457379
O          12.91769605581397  -10.41905618976906   -2.11606910806812
C          12.59752050257548   -9.54668617041873    0.13137993477114
C          11.51090026552129   -8.79857850672936    0.66574011955005
C          11.82743154336013   -8.47894209301489    2.03453659268156
O          11.23035744799954   -7.85135504224674    2.89119121679480
N          13.09745942266105   -9.04922026538296    2.24295089868710
C          13.74916375226831   -8.98371434458367    3.52705742984195
C          13.75012105425762  -10.33748837308126    4.23184844370121
C          13.58005475200016   -9.65575639317705    1.10486332537347
C          14.94247370580575  -10.05945480136704    0.94141691630044
C          15.40694099158397  -10.35714788049272   -0.28244246034610
C          16.80196548362596  -10.37789799989702   -0.69085236888074
C          17.78398984957318  -11.25319085489337   -0.35435353776230
S          19.26337165492854  -10.93106061081058   -1.17919249411786
C          18.57224079818250   -9.59139086129189   -1.98359500827355
C          17.26670742874294   -9.39773994045259   -1.63524057451021
C          16.45037268665752   -8.26161488914997   -2.09897346292519
O          16.58964504344156   -7.65248730689060   -3.12640919833487
O          15.53246769484904   -7.94440468562463   -1.15332451836192
C          14.54031413592340   -7.03343905858661   -1.41422145730349
C          13.90349441460504   -6.47660039868752   -0.39223077676938
C          12.74854063036727   -5.52989656793987   -0.46945918263292
C          12.08085511235289   -5.53885564417945   -1.83976835176284
O          11.40958969139667   -6.41564354833399   -2.30297075114275
O          12.31965742385222   -4.39546859615358   -2.48791719937252
C          13.16844344808138   -3.53034932770908   -1.74069720413628
C          13.05841262296274   -4.02968712549437   -0.29044333098160
C          14.22543255732362   -3.62855201758548    0.60253333425740
C          15.59327095676074   -3.86611435169760   -0.02501751044268
C          15.73606154078819   -3.23127255701889   -1.40301893901058
C          14.58098358424589   -3.54391434900820   -2.36888615628200
O          14.64194351668988   -2.50892719527498   -3.34541151529240
C          15.23361297684691   -1.41044499595908   -2.85420006824101
O          15.30533626167603   -0.38008758254268   -3.45232287690678
C          15.78140927767130   -1.70340277872663   -1.45076206014852
C          17.10854883350461   -1.03335278480528   -1.26335958776278
C          18.23096466975037   -1.60535260308392   -0.87267291269197
H           0.40320302544216   -0.01521161613707    4.35158990748308
H          -0.76926225710153    1.09978460055984    3.64218926932160
H          -1.26918316371043   -2.60609805648866    1.92120853157350
H          -1.07598895776061   -0.25796252244931    1.69959469420350
H           1.32440824069082    0.45707914232298    1.63710992744136
H           0.96309863830877   -1.00206939303839    0.72553818048208
H           2.25593978093424   -0.85940324961216    3.48754314071820
H           3.05069837457756   -1.28537086437485    1.97692945319001
H           2.44954486603724   -3.22868877421248    3.47509353308193
H           0.29989701186969   -2.97445268410636    4.40019165536613
H           1.35896590807920   -3.18681325548464    0.63466520444107
H           2.88492506970677   -5.19674343940828    0.44800533598877
H           4.38713908218113   -3.25530562957675    2.27985633306252
H           6.74652616410183   -3.27249315699691    2.08538601452538
H           6.63493091421443   -7.72703018186759    0.00246052839213
H           4.54910672479973   -6.52871057954130    0.37761083417676
H           9.78877136373368   -6.94827888257161    1.55434037450034
H           8.75923941901498   -7.82359225766278   -1.19353568575059
H          11.16222140743124   -9.61848224323680   -3.45952016421612
H          10.04189231020277   -8.31441775895689   -3.02337553285752
H           9.63343796454410  -11.32160877630058   -2.53198159943187
H           8.79466121600880  -10.35669614152273   -3.74929123786613
H           8.48693699384818  -10.07740087429691   -2.03150482483837
H          13.17808820721531   -8.25931086449287    4.11519147706495
H          14.77170768774010   -8.61107806534321    3.40718125435425
H          12.72899495247963  -10.68098810622025    4.37778242484848
H          14.22924985872314  -10.24815414120942    5.20292328058234
H          14.28396987307188  -11.08068257477043    3.64365396056025
H          15.61532740798128   -9.95978577653895    1.78126610161112
H          14.70499425463433  -10.44895474724782   -1.10366033855758
H          17.71609564728712  -12.09631542813777    0.30356457539018
H          19.15887068141615   -8.99572591889481   -2.65438193297077
H          14.33342104254629   -6.85318915573681   -2.46092318869998
H          14.21191342022453   -6.75154488420112    0.60732151750518
H          12.01155911730617   -5.84087587337346    0.27621187829202
H          12.76317009459079   -2.51885702981055   -1.85503028145650
H          12.14797890746256   -3.59485185433637    0.13558789785112
H          14.15251931744158   -4.17833135362802    1.54146659939954
H          14.11766428202848   -2.56842786320476    0.84277763328193
H          15.77331348336781   -4.93702607635283   -0.11868507799177
H          16.36035950799867   -3.45314733490543    0.63218236379456
H          16.65433457599223   -3.60581947300639   -1.86880561509358
H          14.72187002209186   -4.49123374328689   -2.89536409171150
H          15.06849888320881   -1.26469870540851   -0.74090508980997
H          17.08602055125714    0.02137926950873   -1.50292753975354
H          18.30545816728315   -2.65132982153969   -0.62799716081522
H          19.13871010199007   -1.03552462408198   -0.77770080712305
