80
 SCF done       -156.618164497802          0.000478000276
C           1.64098455151884   -0.07778693988674    1.61002384561372
S           0.66649536132607   -1.20773736989977    0.77619864626854
C           0.74931119991296   -2.35029721316142    2.08736881439963
C           1.51371682009724   -1.83445915503915    3.11657601490749
C           2.01883108928609   -0.54462650590785    2.83839818389137
O           2.80485477112161    0.20686315324906    3.65947777178918
C           3.24616026743008   -0.17218748423673    4.86604998881141
O           3.94008718357133    0.57243244450063    5.49615462796669
C           2.89278509789082   -1.53087818054534    5.47467084327913
O           3.31578543674147   -1.83835856427055    6.55217200930798
S           1.84883979505331   -2.68121757775804    4.61698879456985
C           0.11603765125494   -3.62557010742708    2.04498486457514
C          -0.55134244144202   -4.09009145704430    0.97150089986139
C          -1.17295495974121   -5.37992974973285    0.85440558401873
C          -1.39410851206204   -6.28127473254806    1.91226486392717
N          -1.93143111012072   -7.46188903529514    1.73401270616845
C          -2.28449690399685   -7.81174527007667    0.49546796815191
N          -2.14455487537630   -7.02727603689438   -0.57830821403507
C          -1.60989720077847   -5.84341348898515   -0.39654408885525
C          -2.87768586392457   -9.12042915925158    0.34254423234679
N          -2.93395575840495   -9.82505668968965   -0.83117774286429
C          -2.32342580119587   -9.47970258136640   -2.09239215612511
C          -0.81177604916994   -9.68505679391223   -2.05720933242522
C          -3.59279691581144  -11.06250504553308   -0.66401753686394
O          -3.75387136265385  -11.86257838812484   -1.56062481665468
C          -3.97585608378850  -11.06695819185289    0.72871817213668
C          -3.51486787507874   -9.86194427133983    1.32392236164735
C          -3.98065799106340   -9.85073863859804    2.69793735950673
O          -3.86416758568987   -9.06006345126299    3.60332138163005
N          -4.71063336203699  -11.06438300648880    2.82851887970665
C          -5.23975876222487  -11.44547134243029    4.11635922428938
C          -4.51169444650704  -12.65009541794011    4.70444247040848
C          -4.70981505227226  -11.78570275300545    1.66182665635599
C          -5.35065418253969  -13.02435099946195    1.34976868851718
C          -6.37769244707643  -13.63890810625639    1.96362975627154
C          -6.94952321680831  -14.85663461277557    1.41950136512197
N          -6.25888450584936  -15.52013279552661    0.48828032341778
C          -6.80880465122144  -16.61503026307749    0.00319127572551
C          -8.05952478291973  -17.06352471281161    0.39916812901005
C          -8.72270403271697  -16.29825726540701    1.36784926177170
N          -8.14074461247829  -15.21511048854105    1.88407514233227
C         -10.05387451083261  -16.57640100940235    1.87115044435727
C         -10.88562419250874  -17.50274147211660    1.36253258708798
C         -12.22140917575923  -17.75632609364046    1.79926319225980
S         -13.16070124234580  -18.96687875151702    0.98391778577114
C         -14.55264527395582  -18.68457334220279    1.97540848220285
C         -14.28258132754678  -17.69200309243882    2.89754254928296
C         -12.97906864036753  -17.17018836740732    2.80331789459108
O         -12.45842496062119  -16.19192589074640    3.59428120910043
C         -13.10286952026368  -15.55292153690731    4.58011684928824
O         -12.51958038288594  -14.71648434954437    5.20885180294080
C         -14.55816253829916  -15.85442614430717    4.93120191489339
O         -15.11363329912482  -15.24481842611974    5.79973073185884
S         -15.45741818117891  -17.11956214529935    4.07491679442791
C         -15.78407243933978  -19.40165217109686    1.81775045541771
C         -15.99389268537070  -20.34788566766978    0.90551907738721
H           1.89347007317777    0.86585447285300    1.17238100093991
H           0.22516932100451   -4.22184964404343    2.94033012167654
H          -0.60982357361334   -3.46189232934666    0.08955691035020
H          -1.13647945569289   -6.03611998385924    2.93392223413588
H          -1.50907978581299   -5.22933290999332   -1.28409298602998
H          -2.56065609781440   -8.44279531608877   -2.33351613052250
H          -2.77186183928290  -10.14892577628556   -2.83197210621865
H          -0.35589881574096   -9.03321191339158   -1.31549838216920
H          -0.38707813192513   -9.45539388313590   -3.03026498621783
H          -0.57749710215024  -10.71743224728800   -1.80824437694798
H          -6.31315438664746  -11.63619710433701    4.03948538367294
H          -5.09051875768208  -10.57246057945490    4.75960152057556
H          -4.62066220447734  -13.52334115996198    4.06578205521266
H          -4.92093547528956  -12.88079870911088    5.68403971279499
H          -3.45287247691104  -12.42811568556949    4.81371459627752
H          -4.98087430378928  -13.47578755055723    0.43645232553016
H          -6.88385927203976  -13.25319021824215    2.83369521162852
H          -6.22411421213802  -17.14820756709937   -0.73613307637380
H          -8.48638219590535  -17.95907260107363   -0.01908231691132
H         -10.36114504561604  -15.93682607995077    2.68400715662886
H         -10.57211054388513  -18.12490116004755    0.53467188171375
H         -16.56295979941089  -19.11382897487985    2.51186445231516
H         -15.22207602798172  -20.63833312342470    0.21156279600495
H         -16.93810940024611  -20.85500324972148    0.82765801118911
