63
 SCF done       -134.797858134644          0.000460513421
C           1.17840336628945    1.10963876268928   -0.90858229436525
C           1.92991450770953    1.91264690067532   -0.15034474899621
C           2.07566000270913    1.79277224073558    1.26374341910278
S           2.94771137511547    3.01966533104842    2.13915490504263
C           2.65151848217351    2.30467907250465    3.71410978701256
C           2.99835787907236    2.94496534996435    4.91230008627687
C           3.39795853182623    4.23817550276225    5.14995883336072
C           3.47954972469726    5.40284467851073    4.27404120291606
C           4.63716944847010    6.12827016683761    4.17561956164265
S           4.51648974562123    7.49664219225770    3.16952518315861
C           2.82008402947660    7.17386172075145    2.90903917827516
C           2.14196402204216    8.22844571656935    2.20856763661333
O           2.67406875297792    8.98531449954392    1.42807068998565
C           0.66572135034838    8.54845923276060    2.59856395952250
F           0.19599421286325    7.85225221424132    3.64491523278212
F           0.57303879792539    9.83836646104845    2.93117819139941
F          -0.18494375327698    8.34160794992366    1.58128847166557
C           2.41018511515514    5.99292203666437    3.52058848480533
C           1.17273415993347    5.29329339642999    3.28643070593706
C           0.57464280812463    4.43770869356691    4.15682230436602
C          -0.36408077133075    3.61714697425724    3.45969032559860
C          -0.38574920479027    4.03426386262359    2.09289414949124
C          -1.14964233186820    3.25044752088697    1.29865440285567
S          -1.84890108464796    1.94991745869543    2.19781369309846
C          -1.09494049947047    2.46393235531840    3.69252959877831
C          -1.17312438937072    1.61721732190374    4.82898783319634
C          -0.63390228415717    1.90469443498589    6.03637064134581
C          -0.51641422326780    1.02072874718536    7.14330658506627
S           0.15767943287666    1.65223367480888    8.61945861304785
C           0.07075952377373    0.13679038843664    9.39686698048568
C          -0.44651283432506   -0.82059842659023    8.56791278932833
O          -0.59258783175616   -2.10049818678657    9.01341640683065
C          -1.05910483919798   -3.12851414500253    8.29382226295411
O          -1.14185855619779   -4.20962604308194    8.80292397927636
C          -1.49610802914971   -2.96308676283929    6.84055100642119
O          -1.90120411461945   -3.90268422578966    6.21605047229402
S          -1.43950407156529   -1.38302511711258    6.03927638059660
C          -0.78301680161367   -0.33174639951620    7.28437828713050
C           0.51889077474335    5.20871273053329    1.92078346920566
C           3.69917944303493    4.37367839561443    6.56731133217088
C           3.45835506415218    3.22229173984664    7.22438369778606
C           2.97111842000430    2.23909832884161    6.26214000012357
O           2.58841073737844    1.10848928659961    6.48364026766173
C           1.97304564790049    1.10288337758178    3.50849829678516
N           1.47367104574731    0.09258456822133    4.24769370988911
N           0.82637968835961   -0.79541999645289    3.48367105147824
C           0.88884779884172   -0.39116693973767    2.24106750260553
C           1.61597810690831    0.82708280533287    2.15404151394516
H           1.10297734324943    1.25812000909500   -1.97082546660858
H           0.61757855959064    0.29433531466796   -0.48877261772315
H           2.46976337480408    2.73526274487767   -0.60117900868220
H           5.57426863637760    5.89100299721238    4.64152977012264
H           0.79766013691437    4.37984526681960    5.20427010275711
H          -1.34380529892542    3.32707658341192    0.24764808344417
H          -1.65734067869603    0.66583068780948    4.66573407021172
H          -0.21890235382373    2.88552025085308    6.21055492566103
H           0.39739768498124    0.00460188889209   10.40741021335429
H          -0.06709362949804    6.09996278421482    1.69956852987577
H           1.24272034763864    5.08167614695623    1.11480872311851
H           4.03800280305251    5.29956586932585    6.99764860467926
H           3.55702419083702    3.02208283903275    8.27301806936866
H           1.58439163319735   -0.02793189859952    5.24555475050003
H           0.43104087460505   -0.96965133277075    1.46565521000524
