90
 SCF done       -171.419904613101          0.000795545707
C           5.17368081270049   -8.08140043749942   -0.00454609489910
S           3.70418716673903   -7.46022020613537    0.58761155587922
C           2.75125484672228   -8.53297203743185   -0.39581269819080
C           3.59115534154134   -9.35471668180513   -1.16542236449823
C           4.98374582058714   -9.08771024448909   -0.92983643147915
C           5.97201270998965   -9.83135499601437   -1.60988388184380
C           5.58824152561698  -10.81221116680120   -2.48739296574968
C           6.56381089048619  -11.57574338321539   -3.17117143996464
N           7.36835165086014  -12.18609383932431   -3.71166948031226
C           4.20054873348515  -11.08106075253016   -2.72069125979533
C           3.83665059521266  -12.10657506917333   -3.62231045567247
N           3.51760923963789  -12.93712498127248   -4.34467537420084
C           3.22412386354995  -10.36098481935754   -2.07221179069811
C           1.34361405954958   -8.53178671106413   -0.36335424706621
C           0.59133084794970   -7.76504104403147    0.47483521548524
C          -0.81356792227803   -7.77028414820301    0.52319371521356
S          -1.78093068383025   -8.71605765873243   -0.55947038599125
C          -3.27606014486661   -8.24533014293670    0.19166817279876
C          -3.03464986059588   -7.32395784913834    1.22761030902080
C          -1.63943666005428   -7.06214643656884    1.41862656678007
C          -1.22290888170382   -6.16716833216704    2.41522950231775
C          -2.16085964112061   -5.51642176770207    3.18333042259185
C          -1.74666006884686   -4.61218371617820    4.18801530439664
N          -1.38620166259390   -3.88490020308969    4.99654804747752
C          -3.55294468844336   -5.72911244205625    2.95359850744808
C          -4.49993089699123   -5.00296462596200    3.71276762120489
N          -5.27940724138897   -4.41818484580846    4.31515003522744
C          -3.97809982730021   -6.61667084873967    1.99177560335853
C          -4.46837207100276   -8.82422645646450   -0.29084067896855
C          -5.64557741197996   -8.95387712253196    0.38158886256473
C          -6.79348589772170   -9.54712784931582   -0.18916136876112
O          -6.85257613062464   -9.87739226683116   -1.49575870102023
C          -8.06950532525100  -10.43346123503301   -1.73781395000066
C          -8.80937800083115  -10.47067727029858   -0.56702093286351
C          -8.00239076902571   -9.89683537225054    0.42976256039152
C          -8.31067846672335   -9.70866262698340    1.78347423972470
N          -8.55392216421435   -9.55087254059341    2.89296127678871
C          -8.42229011364500  -10.84779661304497   -3.04428050898669
C          -7.62998273484456  -10.64124463801612   -4.13069147098083
C          -7.94504623404335  -11.02047213735112   -5.44777260900506
S          -9.37505455728963  -11.92248571159467   -5.83964523797443
C          -9.01573642028936  -11.95267815123517   -7.53933151636364
C          -7.81109912284486  -11.26911863179084   -7.79764931108872
C          -7.20568020501161  -10.74447223121228   -6.61266242987421
C          -6.00508883846219  -10.02377791788930   -6.70220514826126
C          -5.42169328414920   -9.82092344747856   -7.93163632423121
C          -4.21734231338565   -9.08585648420039   -8.02050818572110
N          -3.24314834326848   -8.48390912078965   -8.05567427997482
C          -6.02668610180465  -10.34107237367288   -9.11508608228648
C          -5.41440480797927  -10.10427568154740  -10.36741647557558
N          -4.93430188895724   -9.91255565516248  -11.38971179510027
C          -7.20047188765990  -11.05653722284513   -9.04328646250529
C          -9.85195828476252  -12.59470766793953   -8.46964881569563
C         -11.04551185353398  -13.16821101110835   -8.14128009471614
C         -11.94648163047198  -13.84454788158725   -8.98736768746432
S         -13.56865548068275  -14.06568634079807   -8.40110108020249
C         -14.11016405732046  -14.82217842585421   -9.85308244804513
C         -13.05490235180788  -14.93584979793868  -10.76668781706641
C         -11.81744149324350  -14.39763675488876  -10.27509922981995
C         -10.65639619416919  -14.53314518144249  -11.05304636802007
C         -10.72400120587360  -15.11702236783263  -12.29726916821096
C          -9.55006392556763  -15.25496892478947  -13.07224602882080
N          -8.58410649765471  -15.35409803637941  -13.68049881864192
C         -11.96796024205779  -15.59681258389378  -12.80909716806088
C         -12.01559698361760  -16.17801112946281  -14.09740837150596
N         -12.07830483279243  -16.65075968615520  -15.13902820638461
C         -13.10764001117402  -15.51748892766327  -12.04694841791632
C         -15.46395718800671  -15.24787980439961  -10.02564974345978
C         -16.42541356966967  -15.11284328599792   -9.11010406724664
H           6.10441590962883   -7.68669118740062    0.35113385891835
H           7.01732222028380   -9.62846418876505   -1.43282778987002
H           2.18446350901510  -10.57926850207162   -2.26340278856023
H           0.84201379324709   -9.20160005806117   -1.04939340174136
H           1.09784829994686   -7.11138681387045    1.17233948013157
H          -0.17379287091950   -5.97474506798843    2.57912113940469
H          -5.03442306603179   -6.73594730832462    1.81384435270923
H          -4.40670862259071   -9.26482611987958   -1.27842928016838
H          -5.74648080576547   -8.66204391223310    1.41539618404818
H          -9.80201369193403  -10.85425090724564   -0.44854590594770
H          -9.38405176993365  -11.32867646168649   -3.14795267317013
H          -6.68620283835142  -10.13438035614302   -3.98527016827075
H          -5.53686119732134   -9.62116080069356   -5.81725221309827
H          -7.64346957029000  -11.44037378956485   -9.94952306474043
H          -9.51591224021190  -12.58247788525025   -9.49452371190815
H         -11.38256440091460  -13.05675136164453   -7.11665910074128
H          -9.69765482900734  -14.21547255050016  -10.67715295400339
H         -14.03576373656313  -15.90994403212400  -12.43287263173542
H         -15.69095116068252  -15.70799179261672  -10.97752056761867
H         -16.23312711899358  -14.65921261460772   -8.15163798659599
H         -17.42790684370414  -15.45351833562787   -9.29425242445800
