77
 SCF done       -143.817692738360          0.000746326435
C           3.91877261016737   -3.04424445868643   -0.70402118978409
S           3.17553258830846   -4.20789483725710    0.29597506516378
C           1.96421313424723   -4.58540142436503   -0.89019172681168
C           2.15556859201929   -3.80478395590777   -2.03903243637229
C           3.28341042712297   -2.91907538183656   -1.92071769172362
C           3.61734646611766   -2.05420709637069   -2.98584696129916
C           2.85715096125078   -2.06709186035310   -4.12582164122255
C           3.17321437563591   -1.20483805368142   -5.20134990158983
N           3.44420346648353   -0.50112714595236   -6.06403162339111
C           1.73301962433165   -2.94935719330274   -4.24490829150222
C           0.96780107816719   -2.93971628043541   -5.43187232878442
N           0.33093656439735   -2.94987322093789   -6.38511148136780
C           1.39413753466230   -3.79954284987043   -3.21892829734384
C           0.95479717094451   -5.54694047323008   -0.66052940096517
C           0.79275332361681   -6.23981552142920    0.49515115638338
C          -0.23573128072045   -7.18954341602587    0.71003594956595
O          -1.11921051464905   -7.49701202156944   -0.26763906995616
C          -1.98937745276227   -8.40948791947182    0.22750405285639
C          -1.65570379808575   -8.69368562968306    1.54844893154747
C          -0.53940217583757   -7.92054171967100    1.85282647832357
C          -3.01392463532511   -8.89725247816684   -0.61737739572170
C          -3.98565571805952   -9.76257006275802   -0.22252120038570
C          -4.99950054988018  -10.26841320535219   -1.05828844302508
S          -5.07795194202546   -9.89763611614438   -2.75753673034483
C          -6.49343739151251  -10.86264027925938   -3.00165536973152
C          -6.90785403799909  -11.45399829673255   -1.79873945015266
C          -6.05888606191852  -11.11827111352141   -0.69609197149649
C          -6.34861203408474  -11.63191367954222    0.57876671986256
C          -7.44069613515643  -12.45015710583713    0.75815781348936
C          -7.73356880236859  -12.96079077880887    2.04284191963129
N          -7.94735506345324  -13.36453099137629    3.09385387798570
C          -8.28375641669357  -12.78415733209417   -0.34484197128811
C          -9.40828436116686  -13.62342877051055   -0.17828662927710
N         -10.33486576330368  -14.29505249994757   -0.11615605437462
C          -8.01593539937258  -12.29110528461818   -1.60018211530045
C          -7.07297206263775  -10.98527890041003   -4.28468704877894
O          -8.17123314202904  -11.75762226068753   -4.46328902766706
C          -8.50447384275486  -11.70987405026520   -5.77670425458178
C          -7.60518239934612  -10.89076168261404   -6.44866847009153
C          -6.69479735570448  -10.42904344903113   -5.50123758120026
C          -9.61839103221555  -12.43707675423055   -6.25930155119770
C         -10.42719916492887  -13.20127261226918   -5.47762254892481
C         -11.53041183271804  -13.94265583448541   -5.94966220953645
S         -11.96143745058806  -13.96440323390702   -7.62937403855316
C         -13.32706146427281  -14.99253663293241   -7.37796389403929
C         -13.43034235745310  -15.35083035342608   -6.03122905761298
C         -12.41765845776479  -14.74410136585006   -5.21196584930579
C         -12.39720573635826  -14.99131600157842   -3.82727646601586
C         -13.32967525764531  -15.83391135312950   -3.27155608010789
C         -13.34869235178892  -16.09539108950936   -1.88128934996584
N         -13.39337405552098  -16.31596848168932   -0.75819100076553
C         -14.29882877963367  -16.48689342132406   -4.09708050269355
C         -15.21735194115259  -17.39070034018221   -3.51465592580577
N         -15.97533711871432  -18.12854712281013   -3.07399341449905
C         -14.34261921259811  -16.25182284945991   -5.44858241510643
C         -14.14282201701131  -15.31961962539898   -8.51377053321543
C         -15.43467434191582  -15.64736922394158   -8.49838976574396
H           4.77932172672454   -2.50938158519559   -0.35533364523762
H           4.46359833998875   -1.38997452694245   -2.89566447934194
H           0.54385767541023   -4.45553037062620   -3.32787446588108
H           0.26315877505960   -5.72761528204338   -1.47141105015034
H           1.46189652308511   -6.07613761784718    1.32810839832850
H          -2.15963595242273   -9.37934375517431    2.19794837965926
H          -0.00801703511592   -7.88283351193283    2.78194194393022
H          -2.99972694967312   -8.53529381810877   -1.63667303124729
H          -4.00266145207352  -10.09808673900704    0.80420037136920
H          -5.72310448985221  -11.38801416833449    1.42376593770281
H          -8.65699411237919  -12.54545392297631   -2.42746983766914
H          -7.62119837613298  -10.66655601176431   -7.49549840059185
H          -5.86071448515462   -9.77546814685988   -5.65748417836777
H          -9.80573276824630  -12.35849447566907   -7.32075888060583
H         -10.22600067417135  -13.25958142735783   -4.41716518501573
H         -11.65493818780253  -14.53089548449401   -3.19295248045659
H         -15.05602792058826  -16.77941698249625   -6.06067671167038
H         -13.63435840892856  -15.23112969814571   -9.46645276059506
H         -16.02046084656197  -15.67501812070099   -7.59708008738499
H         -15.95632838953088  -15.86652926046604   -9.41327144296487
