78
 SCF done       -146.371279676421          0.000429602367
C           3.81078190977716  -15.63548512455145   -4.80016723663798
S           2.63711031511423  -14.46943066219484   -5.21016469057190
C           2.19237235901063  -14.20390576456925   -3.54791302346149
C           2.96308930384213  -15.02606291661686   -2.70613999004607
C           3.89027703171907  -15.84440353559692   -3.43878704563656
C           4.74582163922246  -16.73125667654874   -2.75024349158624
C           4.68129854519850  -16.80053253601080   -1.38233401416528
C           5.53041770675957  -17.68393885692510   -0.67523298688327
N           6.22651735581727  -18.40541261970436   -0.12086637833462
C           3.75849197146789  -15.98427952087575   -0.65199979845893
C           3.71575572485724  -16.07677844945678    0.75662732114624
N           3.66057453438533  -16.13790027647449    1.90001481576233
C           2.91673856355934  -15.11434064383711   -1.30801382196190
C           1.20467960471605  -13.28121548753930   -3.16936461841612
C           0.49663911005552  -12.49510093241398   -4.03461113878903
C          -0.47289114566662  -11.56412182035310   -3.64306312596940
S          -0.89692805541952  -11.31760210572237   -1.97260608672143
C          -2.02145517828655  -10.03425112492171   -2.33120276842560
C          -2.11462134073126   -9.85739683412511   -3.73429927175270
C          -1.23302142834342  -10.71000165145592   -4.46773931002766
C          -1.21139664331544  -10.65465805772052   -5.86886499245022
C          -2.07370178054024   -9.81097411269681   -6.53326596314287
C          -2.05261195601807   -9.74745548914425   -7.94506968717841
N          -2.01641979719164   -9.70832724795451   -9.08972487526619
C          -3.00817466874327   -9.01852143938313   -5.80500025422489
C          -3.92048415320910   -8.19214444256604   -6.49757031593056
N          -4.66173571573194   -7.50246423062338   -7.03505560534760
C          -3.02651754711995   -9.05008317823335   -4.42631539377031
C          -2.67600160099838   -9.33807958184058   -1.31022151105135
C          -3.04858435092737   -9.81876817984863   -0.03911063896716
C          -2.91970741453894  -11.09255890444222    0.54116933665160
C          -3.48979265356969  -11.32951526824191    1.76163203157597
C          -4.23209673481661  -10.33339725568197    2.42885904567630
C          -4.38443535622195   -9.08508256845207    1.89377766690711
C          -3.76141219881044   -8.78804146750154    0.66876853090385
C          -3.78112897856794   -7.62001033572061   -0.11124121058920
C          -3.05386024731377   -7.91479163823084   -1.34820417485108
C          -2.52864163333645   -6.99541686527215   -2.16861695499657
C          -4.31980573223532   -6.37388561622062    0.24452431436760
S          -5.01721169728437   -5.28546609139346   -0.96017784022954
C          -5.45912011163597   -4.05694483837127    0.22294402051645
C          -5.04951442448391   -4.49857732844083    1.47465905842439
C          -4.43078401653683   -5.76770767027703    1.48663245950905
C          -3.85129297227309   -5.96280336859527    2.81394743199639
O          -3.18978436007515   -6.85206153837275    3.26663955178105
O          -4.16380281346454   -4.83506924555568    3.54858302509181
C          -4.85038001452391   -3.90056049570653    2.79161369013855
O          -5.13423364315765   -2.82211341369326    3.22677856567793
C          -6.11469157738289   -2.86329079307665   -0.12337878440172
C          -6.99038533017853   -2.13449460515419    0.68382905819044
C          -7.60923922385700   -2.43447391631483    1.91461334116998
C          -8.44966294839120   -1.51767609839220    2.47193906535521
C          -8.73535590475703   -0.27675196112136    1.83828891070754
C          -8.22266624780543    0.02580753450646    0.61807290645281
C          -7.35147759773184   -0.90477329623513   -0.00856060563876
C          -6.74382776989243   -0.89053725211781   -1.23442717030162
C          -5.97072958620425   -2.10750269511025   -1.38384670886579
C          -5.24143189606826   -2.41835217735818   -2.46339440108160
H           4.38459859864073  -16.11028097272574   -5.57059420151484
H           5.44208574233086  -17.34582936359591   -3.30051194297481
H           2.22909284245175  -14.50737904627593   -0.73877453591255
H           1.00412786326679  -13.19351303178546   -2.10969226471649
H           0.69786159219353  -12.57902727393636   -5.09433357578250
H          -0.53371699654196  -11.27676404193881   -6.43298941339569
H          -3.75608737524382   -8.46290472955356   -3.89013601509218
H          -2.39061481887264  -11.87832659114048    0.02445205132353
H          -3.39481686354452  -12.30280801988046    2.21920033720739
H          -4.69589307976510  -10.57522549137870    3.37283857382103
H          -4.98663563175415   -8.34274607168618    2.38931019192600
H          -1.86480904044794   -7.25998589900909   -2.97340870390055
H          -2.72954610910529   -5.94582588188382   -2.04144886116547
H          -7.43426327931954   -3.38316401747788    2.39418029019094
H          -8.92527603469105   -1.72992617053756    3.41753604252381
H          -9.39578001967923    0.41480370512191    2.34003926981698
H          -8.46589508078194    0.94702730339924    0.11049915324723
H          -6.79673982477422   -0.11980329695445   -1.97972022891043
H          -5.22058109894159   -1.76130133660280   -3.31705559711957
H          -4.66122861371178   -3.32175710211634   -2.53693883138202
