82
 SCF done       -155.103426460789          0.000372262292
C           4.80695342465298  -15.56910641932642    3.95529980995431
S           4.14082334917382  -14.03325945581777    4.24248405253391
C           3.11611498503184  -14.10924300580991    2.84003172644854
C           3.33566419256312  -15.30867789214814    2.14650102913116
C           4.30210276228065  -16.14730956761630    2.80837615865837
C           4.64927397377344  -17.40339157552916    2.26651909569004
C           4.08060037354754  -17.80822372892212    1.08753480169588
C           4.41155670717121  -19.06463964391466    0.52814553637394
N           4.69090617401743  -20.08549975880938    0.08976578693510
C           3.16204444491888  -16.95339569149144    0.39657702130350
C           2.62642124741303  -17.37283897814449   -0.84221711988614
N           2.17782426932847  -17.69543472932736   -1.84625347187307
C           2.80399599294497  -15.73146892783813    0.91523993082099
C           2.24482742818938  -13.01472168918193    2.60976230300470
C           1.13800624270482  -13.00135177336538    1.82461133346208
C           0.31789663344083  -11.86604532552157    1.61033677529804
S          -1.21870285844935  -12.09570728654330    0.77038369917039
C          -1.61622662080218  -10.41978605206530    0.87400396955184
C          -0.64052206450508   -9.72431421654457    1.50148199621692
C           0.47052588799015  -10.52851850284241    1.92558011470664
C           1.43688644380441   -9.66946583633633    2.52990248584088
C           0.98321569042541   -8.37307194702382    2.51954336104668
C          -0.36621491594196   -8.32063408252858    1.86904285405152
O          -1.05141551300285   -7.34180007569105    1.69154504988907
C           1.60077553321460   -7.18799795019109    2.99281785906986
C           2.79442893022539   -7.12263821323201    3.63560305030924
C           3.38372178859232   -5.91043986426112    4.06790270321570
O           2.80929075230938   -4.71574401087088    3.83944840178777
C           3.61388351116981   -3.74745541080590    4.34940894618758
C           4.73127788563706   -4.32518700600672    4.92669212269666
C           4.59221186074457   -5.71425576661703    4.75017465867735
C           5.46685555800698   -6.72782100338917    5.16038594824655
N           6.17389439639940   -7.56948287957906    5.48894338340488
C           3.20007229133536   -2.39788652075588    4.19474301304949
C           3.90975457592962   -1.32283823486369    4.61416223456862
C           3.52071573318038    0.02803515389700    4.44209759165461
S           4.64312816806114    1.28964282946150    4.96544338601247
C           3.59122813505444    2.55295631131379    4.44353811179010
C           2.45450342129281    2.05110160154515    3.90873844864528
C           2.39209655453214    0.61733743736695    3.90317612780158
C           1.14133355012881    0.23750759191083    3.33387369663315
C           0.42312795430405    1.35361692833833    2.97070311957859
C           1.21524058313215    2.58190701505992    3.30715680251859
O           0.91410846172859    3.73982549162861    3.13013190750838
C          -0.86222186675357    1.35041654221894    2.37761690645099
C          -1.53283707251988    2.47121030999365    1.99719206180290
C          -2.81313307438853    2.47799527719133    1.41117388478598
S          -3.72664754941251    1.02589329633277    1.14557005533944
C          -5.06597986428133    1.87041202830064    0.45283173681907
C          -4.81719360040048    3.24724674256449    0.42011341645918
C          -3.53798554210141    3.59613049921065    0.96547136295772
C          -3.13376453532032    4.94037964177529    1.00279919346605
C          -3.97112318133005    5.91499125114583    0.51300536427483
C          -3.57640865830624    7.27170124490015    0.53941233055459
N          -3.24504632426166    8.36855503212250    0.56604614591287
C          -5.24850863792247    5.56938683799038   -0.03065469045083
C          -6.09101941236390    6.58967449340020   -0.52854018303900
N          -6.79162966663115    7.39855157213821   -0.93855540962660
C          -5.66078353546867    4.25992086718917   -0.07379537235209
C          -6.23607759437370    1.18595791383891   -0.00069138792268
C          -6.41887200445239   -0.13454514982728    0.05984366167360
H           5.53185536883392  -15.98022926197540    4.62909931873663
H           5.36354321863916  -18.03055409100545    2.77819015412319
H           2.13841712088309  -15.09783053795653    0.35195959719619
H           2.47952897648031  -12.12615720228463    3.17844764156318
H           0.79954612435548  -13.90883626183658    1.34757997909792
H          -2.54034451199155  -10.06624134982117    0.46054251566269
H           2.38941436783618   -9.98331889216314    2.91628795325635
H           1.04795366651132   -6.27483031413314    2.81261522692405
H           3.36609982366422   -8.01390779715593    3.85102625390731
H           5.54323480368553   -3.82382041269731    5.41152412588643
H           2.25726083613615   -2.26891947783008    3.68741994022701
H           4.85946517745958   -1.47680821062933    5.10736553576072
H           3.88493981697726    3.57678459379714    4.56810159531056
H           0.79008452454370   -0.77029424076026    3.20407074571369
H          -1.32102647242896    0.37971654227145    2.22171527658218
H          -1.06209912796093    3.43169521010414    2.14753618811846
H          -2.17264161009285    5.21374306936347    1.41050095307171
H          -6.62760238000180    4.01747101193289   -0.48775967876469
H          -7.01065707554354    1.81593376220573   -0.41665624926684
H          -5.66781394228599   -0.79061895747055    0.46786777315729
H          -7.32293448101588   -0.59328291999280   -0.29726373672296
