96
 SCF done       -162.218184979173          0.000818653424
C           5.70422237105702   -7.41217460020490    0.04092048549823
S           4.15585427040678   -6.75340642537147    0.32792237865578
C           3.34954027077835   -8.05417084923165   -0.49974410821880
C           4.29428457590504   -8.97455066517724   -0.98244064082996
C           5.64525187520953   -8.59207760455856   -0.66773525274655
C           6.72351249919126   -9.39948280967027   -1.09153729438681
C           6.46867794585614  -10.54069454650363   -1.80616304015235
C           7.53776356262292  -11.35479955560368   -2.24651345171241
N           8.41820330367314  -12.00064098814776   -2.59413465696056
C           5.12303619022658  -10.92183774052537   -2.12073661106357
C           4.89466624681224  -12.10076635588581   -2.86278477490826
N           4.68839175148470  -13.05252010046986   -3.46813556873346
C           4.06008382858906  -10.14945455779655   -1.71150745908029
C           1.95056175247649   -8.09962758704340   -0.64402102898653
C           1.10086999572537   -7.11720037114951   -0.22896560703149
C          -0.29137879344233   -7.12747588636110   -0.40184477108839
S          -1.13207715136414   -8.47592090356761   -1.10466146259351
C          -2.66924136362388   -7.67608210887299   -1.03529786817709
C          -2.53675260269236   -6.39967441615693   -0.46215574564020
C          -1.19734849834463   -6.09356729443363   -0.08867228882343
C          -0.91777427927840   -4.86109823435735    0.51681637282371
C          -1.92346591899464   -3.95233878591789    0.76033256628032
C          -1.61465418040957   -2.67203493053751    1.39462647684919
C          -0.67258131647513   -2.49324500626298    2.31119026871083
C          -3.26494904305807   -4.25825005992016    0.38421749458581
C          -4.36506689960434   -3.28108347561485    0.66485862216650
C          -3.55093107236810   -5.45806835339339   -0.21087810751407
C          -3.84791262830284   -8.28161367290139   -1.52224990627321
C          -3.97535227812307   -9.59533230783052   -1.82999980704739
C          -5.16706783657757  -10.19340461455782   -2.35120633150889
C          -6.15985963954926   -9.48240621510312   -3.05233681389805
N          -7.27077307089775  -10.03771885595805   -3.46727692873165
C          -7.45920410330807  -11.34629648645705   -3.21307052926477
C          -6.41922548648618  -12.07971263531566   -2.60278900584972
N          -5.31231276439700  -11.52184745318910   -2.18979385184732
C          -8.69417480943276  -11.94484188752712   -3.59881137387423
S          -9.17237180341153  -13.47252828196094   -2.94442866284447
C         -10.66814181777216  -13.49072134625501   -3.83174416410380
C         -10.76621037346788  -12.34594883066708   -4.64502381195109
C          -9.65764524313674  -11.46321670572378   -4.49957901572849
C          -9.61495261848950  -10.27663102727880   -5.24757304739725
C         -10.63206033969286   -9.96471070308884   -6.12049458465657
C         -10.57328596350299   -8.72739140393756   -6.89729445803750
C          -9.45243445451068   -8.16395701944711   -7.32826811053805
C         -11.74619137059334  -10.84530714009977   -6.26205004256885
C         -12.84614672623794  -10.51935431000362   -7.22524098311819
C         -11.79880659186675  -12.00566227520204   -5.53487042024343
C         -11.61658937258418  -14.51343108550448   -3.68240477997985
C         -11.51785627200195  -15.55597579797527   -2.80757707904191
C         -12.49836772994891  -16.54880454026776   -2.64364525101892
S         -13.93725236339130  -16.59637542856101   -3.61557352182379
C         -14.56363136609940  -17.99573208045471   -2.80917736441532
C         -13.68404382906360  -18.41885584084433   -1.80889005370812
C         -12.50812922614375  -17.60261332120138   -1.71218304981333
C         -11.53230117881478  -17.89345728561761   -0.74800918878104
C         -11.70916622549297  -18.96013432283162    0.10331528650718
C         -10.73569750787738  -19.25429775560328    1.08274489092094
N          -9.93508253588680  -19.47706402068150    1.87253832669281
C         -12.88031930828832  -19.77590473863485    0.00790829076168
C         -13.04315388392505  -20.86481555216592    0.89411072342886
N         -13.19942329878839  -21.74995218298216    1.60493076358239
C         -13.84519426688437  -19.50851353426443   -0.93195612520566
C         -15.81731206259685  -18.57454055772101   -3.17403194750110
C         -16.61602547716094  -18.11949683887911   -4.14179234170631
H           6.57619543075498   -6.90399024807111    0.40052563937623
H           7.73710430648649   -9.11225406773845   -0.85536954883247
H           3.05387454664393  -10.45280002985890   -1.95823132697976
H           1.53963279077713   -8.96999241384674   -1.13770278360354
H           1.51964771498225   -6.24020625171697    0.24751218998600
H           0.09785743629637   -4.61443008400146    0.78369726265252
H          -2.21765243405521   -1.82980531114451    1.08366788082520
H          -0.07224004925445   -3.30669051322576    2.68338924428625
H          -0.48088294256764   -1.52554024876995    2.74185776141555
H          -4.24038878499245   -2.37927294703646    0.06514916684269
H          -4.36195411220466   -2.99078795703314    1.71434328548715
H          -5.33242036086279   -3.71628374906199    0.42686942532758
H          -4.56951489387824   -5.69161679603503   -0.48285128876136
H          -4.70531039056032   -7.62858612379056   -1.61580708268322
H          -3.15841391319506  -10.27709691691189   -1.63585212317873
H          -6.03576420738202   -8.43699996465626   -3.30248863074002
H          -6.50055580610074  -13.15105147324077   -2.46775805886548
H          -8.78060931664059   -9.61040604890922   -5.10629851220816
H         -11.52263449959955   -8.26509685082418   -7.13122577141998
H          -8.48564994451501   -8.60399353789894   -7.15018629826314
H          -9.46258003073039   -7.24661483894714   -7.89174082940771
H         -12.44210435203047  -10.32449988972278   -8.21751060370096
H         -13.38911047673686   -9.63108408042222   -6.90191788527512
H         -13.55219252770936  -11.34335740241857   -7.29226997647322
H         -12.63840723770625  -12.67447759305073   -5.65355159647008
H         -12.50316776387597  -14.43988026882318   -4.29874910843702
H         -10.64084000604717  -15.62476674673954   -2.17813938679805
H         -10.64393706979824  -17.28603376175962   -0.66487296535348
H         -14.72288483331530  -20.13406474063353   -0.98936749945410
H         -16.11010259352732  -19.44543544572092   -2.60323438621263
H         -16.35349553027728  -17.25530977682074   -4.72940204721377
H         -17.55030164465748  -18.59855165058812   -4.37154480108040
