97
 SCF done       -184.704496563394          0.000404781920
C           1.64485746344378   -3.82803877549012    5.70634147666323
S           0.31996004949317   -4.50299323850235    4.87844027463057
C           1.17939625590191   -4.55700953675600    3.36638461272937
C           2.47935895435495   -4.04797379707245    3.53150698991021
C           2.73575113218167   -3.63282943512144    4.88346386340084
C           3.99387903598624   -3.09835668721788    5.23426592520141
C           4.96526712683335   -2.98322718101246    4.27366375036396
C           6.23422580927738   -2.45202819527067    4.60575917626671
N           7.25515813142713   -2.02064775794262    4.89483660959999
C           4.71212976036940   -3.39808212899265    2.92648683691447
C           5.73818075294096   -3.27173627375557    1.96259272920212
N           6.56078975784219   -3.18015422844633    1.17019288722792
C           3.49028401815679   -3.91864470565702    2.56678250631569
C           0.59578796499793   -5.04846203770354    2.18316914534441
C          -0.65554395432058   -5.58893297806223    2.11964535453255
C          -1.31751743156664   -6.09510466957384    0.98673138674054
S          -2.69398351249357   -7.12395364294568    1.26028274560116
C          -2.92525854404819   -7.45110205460954   -0.43024652146617
C          -1.97273461852529   -6.73924161432952   -1.19426652803113
C          -1.08077937661411   -5.95388673438635   -0.39757691902611
C          -0.16245759782230   -5.10686198756927   -1.03696933691807
C          -0.08341695631254   -5.08844293628030   -2.41219700993000
C           0.83490348716638   -4.22119795199871   -3.04853546051827
N           1.58545054684224   -3.50784636258582   -3.53860002546971
C          -0.92943652252890   -5.92109842186700   -3.19912332823347
C          -0.82437157517743   -5.89655545936429   -4.60878741939407
N          -0.75875161310755   -5.89022692013036   -5.75254438813774
C          -1.86961449911949   -6.72368744985363   -2.59086985923574
C          -3.93320863064453   -8.29345203704047   -0.90386160476755
C          -4.88654818665169   -8.89183927614139   -0.11956594176422
C          -5.89826182241932   -9.72171771843737   -0.60481350678482
S          -6.01048531133270  -10.16102142696392   -2.28646171449336
C          -7.45552351775128  -11.10366538811283   -2.05161859592640
C          -7.83885182838241  -11.07919527529222   -0.69063655260665
C          -6.95792708184853  -10.30750532929270    0.12485716518668
C          -7.20252776230512  -10.19051011323676    1.49886228068141
C          -8.29341418275156  -10.82500173232696    2.05383427829637
C          -8.54562255349426  -10.70915674400263    3.44005998971657
N          -8.73092892915107  -10.60064408316275    4.56557083319950
C          -9.17142320367183  -11.59718073811477    1.23995379553556
C         -10.28472707272730  -12.24175156797319    1.82584699448585
N         -11.19375635455647  -12.77380689284936    2.27709216764578
C          -8.94237863233237  -11.71958938975910   -0.11414368420594
C          -8.09809512956517  -11.75558057881018   -3.10404708953944
C          -7.62895560701012  -11.80017630359760   -4.39348334004454
C          -8.28398675763986  -12.42312885148338   -5.45582624800594
S          -9.86086426493065  -13.14131276928950   -5.28463515411494
C          -9.93921749835865  -13.61842006901298   -6.95476828359800
C          -8.75445773810890  -13.24611424414932   -7.62762404582026
C          -7.82419872004071  -12.56615781243337   -6.78476255489692
C          -6.59880833998986  -12.13021075745978   -7.30377226937874
C          -6.29878347479167  -12.36210591958193   -8.62876824338545
C          -5.05945448980793  -11.93135712184413   -9.15626414638439
N          -4.04807864740936  -11.57486595285250   -9.55947080121883
C          -7.22734419397720  -13.03827920831933   -9.47181596002555
C          -6.89852792404756  -13.26223076915150  -10.82921823824539
N          -6.64869072559847  -13.44948052609850  -11.93129101966660
C          -8.43689502343076  -13.47171399788536   -8.97443957269737
C         -11.05908261765842  -14.26488137295882   -7.49568481515638
C         -12.20569245175343  -14.50494025154704   -6.78964890640358
C         -13.38844655845135  -15.12360276965331   -7.22958143988079
S         -14.80184759939966  -14.91182436954628   -6.23541090427785
C         -15.83161377997406  -15.76777872637585   -7.32097593619276
C         -15.09951186370708  -16.24139875659195   -8.41830161300801
C         -13.70729814651912  -15.89520383240073   -8.36539973280216
C         -12.84428913945785  -16.38507725354647   -9.35728414678415
C         -13.34350014544553  -17.13567203750443  -10.39817421443000
C         -12.46625064506154  -17.62884825470431  -11.39067308851619
N         -11.73433997712116  -18.01549676582217  -12.18304569434142
C         -14.73762336560631  -17.43021282165329  -10.47869611101307
C         -15.22964890857887  -18.18981618726410  -11.56554236473328
N         -15.64913462168389  -18.80376447768790  -12.43702836387789
C         -15.59455454006157  -16.99876314533816   -9.49540249963869
C         -17.22882405874868  -15.93112174271719   -7.06884731431235
C         -17.86660168943871  -15.46008776743422   -5.99491502518698
H           1.56679336808536   -3.60629319587740    6.75194566327141
H           4.18339715776013   -2.78616367249652    6.25001428863785
H           3.32446592753240   -4.22443649625346    1.54479241822948
H           1.22059867369982   -5.01589338186642    1.30433017802397
H          -1.19790658136286   -5.69775632507651    3.05221102994207
H           0.46084475740635   -4.43520349835578   -0.47002620662976
H          -2.52742462930881   -7.32559345507097   -3.19863451899275
H          -3.96335810271303   -8.46989664513458   -1.97083739424783
H          -4.87325131040688   -8.70062543542197    0.94523759956917
H          -6.54656599146329   -9.60987025805896    2.12904622601323
H          -9.61593178429312  -12.30902323885151   -0.71703072270868
H          -9.02606843390001  -12.26301343325472   -2.87625037076872
H          -6.68148979189528  -11.32545577866163   -4.61174142056468
H          -5.88460769338677  -11.61767934898339   -6.67789226126850
H          -9.12599610846912  -13.98305608646099   -9.62892838890820
H         -10.99487933041183  -14.52973378794310   -8.53905681080215
H         -12.24459611313822  -14.12692735215142   -5.77389212959556
H         -11.78220761757738  -16.21097129956945   -9.30462103839496
H         -16.64209121813211  -17.25106692510388   -9.55270474298757
H         -17.77890692336639  -16.47900003012291   -7.82143331899423
H         -17.34903437510895  -14.90951057733838   -5.22653453719497
H         -18.92135421203617  -15.61293348821608   -5.85650978227684
