80
 SCF done       -155.211251003695          0.000332313025
C           2.18226559876905   -0.30967028644023   -1.50377057424739
S           1.15018904631737   -1.54924487189591   -2.04303849756271
C           1.02306510267817   -2.25494945822966   -0.46094911409375
C           1.78336107888547   -1.51865687522195    0.45753275503736
C           2.44878835951878   -0.39946083492113   -0.15249920697395
C           3.26278464427092    0.45126379328429    0.62592568762426
C           3.41198631308206    0.19610499316758    1.96423188425493
C           4.22590511119614    1.03427670639465    2.76223434150791
N           4.88938236676030    1.72228327760049    3.39368862960803
C           2.74968756580952   -0.91993356355580    2.57360928136819
C           2.92704104006304   -1.15526130734094    3.95615272604927
N           3.05816039094278   -1.36483229711837    5.07512756359273
C           1.95146225027066   -1.75775634832157    1.83233695193547
C           0.24376174231380   -3.40845123465359   -0.21028835453731
C          -0.44868542539296   -4.09407821378337   -1.14895262195787
C          -1.22943751673320   -5.25586472288579   -0.84826828379614
C          -1.91702786153882   -5.95991038796859   -1.85426928191776
N          -2.66237333326985   -7.00733855119766   -1.60384388459560
C          -2.75936216713062   -7.42353169459043   -0.32748449414373
C          -2.04410659869797   -6.73662410650372    0.67550909475975
N          -1.30776825559048   -5.68560200894573    0.42517176714729
C          -3.59083616157848   -8.54911507558357   -0.04341667491283
S          -3.82693744848416   -9.09157349980222    1.58256593567619
C          -4.89295203669169  -10.37505863516095    1.10804626384739
C          -5.05317913547319  -10.38451781385028   -0.29115721459445
C          -4.31370150025178   -9.34757482428981   -0.94277893580802
C          -4.36247391158203   -9.22461376290555   -2.34296273408892
C          -5.11818591593211  -10.11094056490625   -3.07242386756190
C          -5.17270111685085  -10.00086318837545   -4.48178457486109
N          -5.20855042438133   -9.90210491276609   -5.62254842275376
C          -5.85191815825950  -11.15094571384202   -2.42384495179744
C          -6.60648319272191  -12.05979870074265   -3.20094946409666
N          -7.21539955825587  -12.81140963381224   -3.81497649668608
C          -5.81935645398810  -11.27939697891076   -1.05434813086082
C          -5.50092578749581  -11.24098195176881    2.03521993481101
C          -5.22958789593534  -11.26125331461206    3.37124009809125
C          -5.84430234617559  -12.09272098630304    4.33060373236593
S          -4.99286530288798  -12.43750911808327    5.80163425674186
C          -6.18626728597584  -13.56296078481797    6.36087451382561
C          -7.27645674464195  -13.59628563538390    5.47342625033704
C          -7.08404647841959  -12.76090349056839    4.32189084146886
C          -8.12724567124856  -12.60751495465337    3.39478490228016
C          -9.30774409647109  -13.29366808940438    3.56578578924617
C         -10.35689282437870  -13.13332203743840    2.63180787381590
N         -11.19116033799437  -12.98809605876570    1.86004953269008
C          -9.49574109231162  -14.13181389843622    4.70397531928630
C         -10.72667286799504  -14.80480923091319    4.88182700001063
N         -11.71244834179080  -15.36602799484673    5.04249171587937
C          -8.50372027630707  -14.25866936887149    5.64824011291971
C          -5.91963003035161  -14.27678747281862    7.55604908148041
C          -6.47638257039348  -15.45478454841795    7.93065128575889
C          -6.18362946544473  -16.13043235142596    9.14827446686955
S          -6.93110882312919  -17.68056207478116    9.45628684060105
C          -6.15991330209996  -17.83961463129739   10.99687982715913
C          -5.36241301890798  -16.72256556448587   11.23629181399883
C          -5.38035189389285  -15.76920319100591   10.20009891358946
N          -4.57228826658004  -16.49295557788202   12.39872828373927
O          -4.55521007928558  -17.33137920456645   13.27797230688416
O          -3.95040607208848  -15.44969475342306   12.43778675996464
C          -6.38176949475844  -18.98922570617518   11.82515471146737
C          -7.17480749670122  -20.00576229051731   11.48558601123410
H           2.54674248179629    0.42463921633887   -2.19426840084458
H           3.76093423890741    1.29125655856829    0.16597400002867
H           1.46110136610129   -2.59278654764052    2.30880040661969
H           0.20186733524791   -3.76665282956440    0.80885992627989
H          -0.43215948222962   -3.77723390103469   -2.18344937528968
H          -1.85882618891938   -5.65575104968209   -2.89131079850632
H          -2.08086190642628   -7.06231618153562    1.70793823023698
H          -3.80483508467192   -8.43713923372599   -2.82320006138132
H          -6.37880890822428  -12.07255626122519   -0.58198399643748
H          -6.19643057573851  -11.95571334282341    1.62183076502820
H          -4.42786736626043  -10.63126581765791    3.73782701434059
H          -8.03434981656102  -11.91941248880397    2.57011290380963
H          -8.69762141690403  -14.83352644546562    6.53878292946685
H          -5.15191585692637  -13.84492739555148    8.18422114398632
H          -7.16421254479833  -15.96751856282298    7.27546950205210
H          -4.81331890780929  -14.85861302021167   10.25709386744508
H          -5.85630132902902  -18.98894181826394   12.76946058768826
H          -7.70743350091901  -20.02459972947755   10.54771854034653
H          -7.31301911106774  -20.84772556972049   12.13944353811470
