85
 SCF done       -163.125478346686          0.000632327459
C          -9.43477732866707   -5.32018552157363    0.46070202803333
S          -8.54296562649851   -6.39442697672031   -0.51090967343866
C          -7.16521234601188   -6.35667100227584    0.54295156038702
C          -7.43405144242577   -5.54946143504766    1.65815501392842
C          -8.73730854082214   -4.93865236195184    1.58750182411289
C          -9.16651090170375   -4.05322052596858    2.59895181532385
C          -8.34397687455628   -3.80668777394136    3.66572232956932
C          -8.68056934911111   -2.85203741375300    4.64831062906113
N          -8.91094125132774   -2.04632224893168    5.43134016076136
C          -7.08567704385481   -4.48521764534995    3.78518257299419
C          -6.28129851192240   -4.23357964581434    4.91558400464302
N          -5.60356139835831   -4.00704104027578    5.81361106659351
C          -6.64865250420757   -5.34404817015650    2.80441509248305
C          -5.99600371699234   -7.07018005235882    0.17152070310445
C          -4.74297506245930   -6.78137194271782    0.60415086640549
C          -3.57733591652497   -7.51154291530018    0.28931030514591
S          -3.53164584026123   -8.91807970653689   -0.77522828388456
C          -1.83542522936942   -9.15355644226040   -0.51237604265489
C          -1.33027747602081   -8.22622405084261    0.33285543863329
C          -2.30901538118816   -7.28314488597978    0.78804833362793
C          -1.69069876004759   -6.38033383739094    1.69030566105366
C          -0.36234983817092   -6.71658867562626    1.84834288383849
C          -0.04101043607040   -7.90053318461477    0.98356987174027
O           1.02264458615690   -8.46100838537895    0.85852169099671
C           0.53061220531182   -6.07357067539900    2.73124396381654
C           1.83706896619234   -6.40484877597597    2.94105782580018
C           2.63543817634763   -5.76406689223003    3.90482606710948
S           1.98109076777017   -4.52960970801787    4.93273275036748
C           3.46304051087702   -4.30943987939305    5.81732610484989
C           4.45643387573206   -5.16985751673503    5.30896821369401
C           3.98538290119336   -5.99070900684531    4.23203783530284
C           4.84883881087136   -6.90727121104372    3.61406116705719
C           6.15139417520634   -7.01269912710872    4.04520137012953
C           7.03365429279429   -7.93007123098740    3.42996044360996
N           7.73873684088699   -8.67726803108342    2.92252306781751
C           6.62378792835663   -6.19504677164723    5.11541333103643
C           7.96610793155741   -6.31710891524913    5.54238629683370
N           9.05118313588813   -6.40395760903310    5.90002135532369
C           5.78877545991333   -5.29189878521481    5.73331481395749
C           3.48282115805797   -3.37934398834787    6.87296772285118
S           4.89213190928282   -3.07130515122072    7.89700577681442
C           4.04333843355482   -1.90590428573923    8.85728380894404
C           2.77136970834488   -1.75003945352624    8.43278963057377
C           2.43737455428263   -2.57528131666223    7.30823118460948
C           1.08999676370017   -2.32521017903175    6.95141616498807
C           0.54099777354030   -1.38145084650372    7.79403930990303
C           1.57118793667013   -0.95735456567746    8.79440004789246
O           1.44052633252841   -0.15194244069706    9.68447033114581
C          -0.77162898111668   -0.85171908335606    7.76580750049403
C          -1.67022950794547   -1.19015099480055    6.80013349064697
C          -2.99072469055801   -0.73467185317432    6.64677696471727
S          -3.80004244117941    0.32206804923383    7.75406420373283
C          -5.27142560616535    0.32241452602765    6.84483932920194
C          -5.13475922476282   -0.43515375263548    5.67776495956188
C          -3.84615555581363   -1.05895110940159    5.57859294736191
C          -3.55736767874449   -1.89743453146437    4.49555673219248
C          -4.49392194272341   -2.07917765975539    3.50554163067030
C          -4.23803589398449   -3.00284196385433    2.47726989428825
N          -4.01211922435593   -3.80553348392582    1.68746624695792
C          -5.73953372238265   -1.37458302347233    3.54837543635846
C          -6.63370922337445   -1.53524845586956    2.46983092384089
N          -7.35141894211487   -1.69618321171202    1.58907830534276
C          -6.05278303098932   -0.57316060107404    4.61950772473231
C          -6.40617406256552    1.03149550300881    7.36646705712636
C          -7.68436647430781    0.72114994917103    7.14784857304800
H         -10.41537060010842   -5.00810037229778    0.16192974490090
H         -10.12542340682776   -3.56538050249085    2.51719760167152
H          -5.71411132728258   -5.86510514247160    2.93557389446183
H          -6.13168452850242   -7.87251632742138   -0.54414980487576
H          -4.56853968874021   -5.90632931936939    1.21346936050707
H          -1.33949448635452   -9.96837493596460   -1.00275786699759
H          -2.18901303921831   -5.55747400774697    2.17214725589898
H           0.10804525570165   -5.25711098607821    3.30886400563688
H           2.27992725891027   -7.20214894678754    2.36298611864501
H           4.49735601257697   -7.52659499370983    2.80330267350601
H           6.16934013009975   -4.68348570037329    6.53789816469676
H           4.55861458622876   -1.42479792226192    9.66518513357120
H           0.57393561891381   -2.80775943817084    6.14341215487897
H          -1.03271500038424   -0.14566765434817    8.54266734630031
H          -1.34755063917240   -1.88410568306405    6.03711597958159
H          -2.61305774913074   -2.41566918187797    4.43160861502587
H          -6.99017760320078   -0.04110882887269    4.63625989372327
H          -6.15961251920479    1.84725041417223    8.03579053588634
H          -7.98973801268154   -0.13390176678376    6.57037923441991
H          -8.47160841703611    1.30453519734386    7.59309960165168
