111
 SCF done       -225.092562919426          0.000643658455
C          -5.24771190849068    4.66710460529736   13.94052047251697
C          -5.14061709242654    3.57198070002391   13.14152524711060
C          -6.33919953285235    3.44411040085163   12.36978444447259
O          -6.53683766136405    2.34647813141304   11.66295272322747
C          -7.83929785384055    1.89593413622362   11.32415534506977
C          -7.17399363328259    4.56211387962142   12.64397412196614
C          -6.53659597516296    5.28499986433670   13.75216598811948
C          -7.00984407842734    6.30842099321741   14.53392308490693
C          -6.22932891766490    7.02603351725492   15.50294150725404
C          -7.03371791054102    7.95387951963092   16.09275578769156
O          -6.78211816278384    8.87587489370909   17.01689168314126
C          -5.46416185003537    8.95366986842675   17.51613098716599
C          -8.39074291849819    7.82361698223585   15.53861459589097
C          -8.37727922441122    6.85626128440524   14.61343977416209
C          -8.21969149308757    5.07450821091275   11.87841827263604
C          -8.45065149101998    4.76883268745135   10.54554942599061
C          -9.50864822766506    5.18873608748786    9.74526304080247
C         -10.81701173106452    5.64900107121780   10.02960827677055
N         -11.40845103406677    6.06315179251891   11.21897857994381
O         -10.70620671409448    6.34940418901170   12.18763750566636
O         -12.62914803371942    6.13703940097142   11.24678881931585
C         -11.58709309348758    5.56878671178447    8.83884688696001
C         -10.81058142655842    5.09268043557858    7.81090214447860
C          -9.50245119245511    4.88256849840157    8.29284754602654
C          -8.36545738392137    4.56203251549531    7.55488507893111
C          -7.04193233389946    5.00018927502286    7.83313259778348
C          -6.21894330515323    4.57370304773613    6.82949184726490
C          -6.97421987604939    3.79792445540222    5.90183416801528
N          -6.34777810715343    3.24083661559144    4.78165491093073
O          -7.02536092566343    2.81122260949460    3.85595336773815
O          -5.12621238085696    3.22847462161490    4.77319241858327
C          -8.31614747096671    3.76075914411333    6.32703230467904
C          -9.40561669664244    2.93498967026898    5.98917029184880
C          -9.50602551015366    2.00974601215910    4.99051821559016
C         -10.60877076668408    1.14441994923560    4.83622167088964
S         -10.97072600975864    0.58888233085596    3.23415313926873
C         -12.44807874342834   -0.15825437352931    3.72954522974113
C         -12.61118961333451   -0.07725351600328    5.11571562975108
C         -11.55869400433554    0.65921409744319    5.75767335836129
C         -11.53934752288316    0.71556051564182    7.17494373220726
C         -10.46253883054741    1.19809439806492    7.95250671814807
N          -9.64187619613026    1.49086326807359    8.70034556887260
C         -12.58006334585138    0.15662467444462    7.90262052051458
C         -13.60119385774900   -0.55318732977584    7.27546386836863
C         -13.60392652939762   -0.72071485934157    5.90337170186488
C         -14.51900500286050   -1.64624599560644    5.35472580393261
N         -15.23534020125883   -2.45997020415514    4.98048075394367
C         -13.35614365455153   -0.67204683472199    2.75653407781421
S         -12.80418540620601   -1.51838749267566    1.34377428372333
C         -14.41883553659201   -1.74879038548190    0.75278619787787
C         -15.34588233270661   -1.14454465535139    1.62241082228957
C         -14.72041489755202   -0.53099637866276    2.72923405285711
C         -16.78576072713325   -1.11127383083318    1.46170349201417
O         -17.48561460835611   -1.88028292201705    0.84863288353112
C         -17.49609421995789    0.06917868607077    2.19107575164270
F         -16.85543427198543    1.23756708863295    2.03482980950763
F         -18.73096764560000    0.22957852046971    1.72581038477104
F         -17.59670952074176   -0.13607557778536    3.51681579678531
C         -14.51136197568626   -2.37038075274180   -0.51800183032437
C         -15.63255537798192   -2.68201899673487   -1.21673782212277
C         -15.58578530492207   -3.19233691117142   -2.53622741049144
C         -16.62844274832476   -3.22104701635509   -3.41041369976834
C         -16.58210602806562   -4.09346457277681   -4.61601606823146
O         -15.60712364429525   -4.63844731649311   -5.07750405410976
C         -17.98249161629583   -4.18727166799246   -5.07501048531297
C         -18.50476420646103   -4.95561140327010   -6.07545077383346
C         -19.89432332648365   -4.90694025771594   -6.32500270888996
C         -20.71948935932521   -4.06633166391972   -5.52232388523237
C         -22.10629093754800   -4.02813429813120   -5.77144898831185
C         -22.64727764991671   -4.78516245006076   -6.77234410336335
C         -21.82985820953349   -5.61469696829605   -7.56665822716403
C         -20.48211301181096   -5.67558730969129   -7.34864556179154
F         -22.38786454112250   -6.34619377762000   -8.54040422376653
F         -23.96458874398313   -4.74625381483152   -7.00957463450853
C         -20.15007879616297   -3.27857542420947   -4.49588822014713
C         -18.79857209728125   -3.33031789631121   -4.28086091292830
C         -17.94194958387802   -2.61265508301775   -3.33873278716372
C         -18.27324419195325   -1.45175703619545   -2.69220469264266
C         -17.35778056982033   -0.62007263164940   -2.01219348976307
N         -16.65469195754470    0.12617986519669   -1.49594041693454
C         -19.56348707938120   -0.87939950078699   -2.73505176667074
N         -20.59727094106848   -0.38203042402273   -2.74497276731090
H          -4.51550604386356    4.99286628267172   14.65330903965745
H          -4.32727939283569    2.87340343059689   13.09341923547449
H          -7.85778095622941    0.83065440813912   11.56101151890267
H          -8.03218070394080    2.01364293257014   10.25708677684884
H          -8.60817580423362    2.41355570391548   11.89731476802586
H          -5.18334844211544    6.87539018005403   15.67866053534388
H          -5.46373460200017    9.75400369786937   18.25333914481028
H          -4.75713260609995    9.18903501039164   16.71562873140551
H          -5.17051681451662    8.01330743910447   17.99106145520066
H          -9.21835192086694    8.42365842233459   15.86244128059054
H          -9.22971735402552    6.51147927166603   14.06403228200589
H          -8.81708112837842    5.85812881955903   12.31189149237902
H          -7.70168010796637    4.18166199832589   10.03400026763492
H         -12.61800797322489    5.86663707040014    8.78366796550619
H         -11.11690847033281    5.02443374267856    6.78457610295450
H          -6.76807760436675    5.66457044587239    8.63058933464585
H          -5.17200031015466    4.78047992340323    6.71232444946155
H         -10.26392276994219    3.05475279699126    6.63462321986305
H          -8.75514540524219    1.97421064867101    4.21321582917818
H         -12.56349460546021    0.22570282525983    8.97977596598308
H         -14.36627411354755   -1.02854518114166    7.86999077837487
H         -15.24784996828441    0.00905985342808    3.49299035681483
H         -13.55217739071299   -2.56013169247375   -0.98788993321456
H         -16.60337273757484   -2.54573068900769   -0.76787842308307
H         -14.66290209543691   -3.64676214770505   -2.88154361532193
H         -17.86603285739823   -5.59227706952245   -6.66851735825585
H         -22.74551084347408   -3.39615105979189   -5.17498469842608
H         -19.87025322062753   -6.31552822599445   -7.96491698002892
H         -20.79913327401248   -2.65950654346644   -3.89765670580376
