84
 SCF done       -179.824583305989          0.000670586706
C          -0.46225180447935   -0.45192284713845   -0.24380291729628
C          -0.42555181191852   -1.02962393273970   -1.49015235679163
C          -1.75024140491953   -1.14554349012284   -1.97294267805524
O          -2.18358065032068   -1.69889945251344   -3.09478829367964
C          -1.23809485224373   -2.23451728848305   -3.99997269244581
C          -2.63784596219229   -0.57154180858201   -1.01654993958179
C          -1.80346579560799   -0.10478002720982    0.09338027852554
C          -2.18227031155045    0.50611282350520    1.27193755546381
C          -1.40557892288926    0.57335063267800    2.45686224785683
C          -2.15423433219637    1.19704284908795    3.42598142575770
O          -1.92637416044041    1.41750595533936    4.69860302863636
C          -0.79696665264809    0.79814052058678    5.28321013764771
C          -3.42371979022245    1.64448547100656    2.82102033875007
C          -3.45181376605869    1.21128913777019    1.55628358001033
C          -4.01110938844882   -0.70479311528945   -0.99091358656544
C          -4.82857222046178   -1.26127594903771   -1.99496017106399
C          -6.05539984841598   -1.80150506261715   -1.70776224666923
C          -7.17518754782832   -2.04224158284799   -2.55646142098890
N          -7.19052205914384   -1.98522411849929   -3.94865992805678
O          -8.25444701865789   -2.17266221700692   -4.51906679426936
O          -6.13534207647378   -1.75963901381276   -4.53284275428162
C          -8.29004629346954   -2.26461945064271   -1.74290304169727
C          -7.91109200391441   -2.21903162393180   -0.39778163757782
C          -6.53696839591685   -2.02065913857298   -0.32599260429328
C          -5.62127788781306   -2.07510565737681    0.74177600889785
C          -4.30244863101807   -2.66031661810724    0.61320853047375
C          -3.64291912585797   -2.48559721934789    1.78544721776286
C          -4.49839677939293   -1.77351944956056    2.68623846763524
N          -4.01027675202358   -1.33163452012539    3.91046954156981
O          -4.75668729864400   -0.81421500757971    4.73033065858578
O          -2.80230163766695   -1.45514404843788    4.11153288309872
C          -5.75049796950611   -1.56223448211240    2.07064995658857
C          -6.95052363281259   -0.88087943825837    2.46558085460064
C          -7.37670827493608   -0.55265246995865    3.68867586894312
C          -8.73298205882028    0.07591007754004    3.87426866856666
C          -9.39090699546039   -0.11767662214271    5.22949846600264
O          -9.20710393008448    0.28779444081417    6.32796107710629
C          -9.86679592485573   -0.73222197353854    3.25871748215121
O         -10.17805184829386   -1.03099030945087    2.15007657368647
C         -10.48634770044606   -1.04480261812005    4.63207353390463
C         -11.89107406283184   -0.66207084289284    4.85183972382396
S         -12.51528136541482    0.80698283727416    4.20514774637039
C         -14.08203134868087    0.52321134061529    4.90985571644368
C         -14.09165453387470   -0.65986931625040    5.62002954344964
C         -12.84424526101650   -1.33896536225483    5.58444427390054
C         -12.56004856252534   -2.58342382880621    6.18469005723422
N         -12.27318160504415   -3.60063971537889    6.62524858938418
C         -15.26834248348859   -1.17192944418912    6.39173409216750
F         -15.86669150223464   -0.19825747751700    7.10427799503795
F         -16.22121672446430   -1.68722554214492    5.58844968773906
F         -14.94780417461414   -2.12765022005097    7.26086236725472
C         -15.13781302602153    1.46486797986380    4.66666962028093
S         -16.81372795074396    1.01747337868686    4.63301004071306
C         -17.28952623879117    2.60779767697992    4.23934733654378
C         -16.22844272061407    3.45473588488978    4.13097614482460
C         -14.98317410491169    2.81062827504079    4.36614236452810
C         -13.75444027828599    3.49625438256593    4.32375179879679
N         -12.76470876023855    4.07280801663215    4.28755170219358
C         -16.33581417794150    4.90953010803801    3.79809050328866
F         -17.60699530183146    5.28240194610762    3.59791988143450
F         -15.85242314269101    5.69192206884869    4.77384389625367
F         -15.66115405462437    5.22390606709845    2.68175822105675
H           0.39408290478943   -0.23951508754608    0.36725891334616
H           0.46045296862450   -1.35621226480993   -2.00182892479583
H          -1.81576809277418   -2.60966807681577   -4.84245325159757
H          -0.67858368119931   -3.05492897748776   -3.54268184343148
H          -0.54262069863988   -1.46493667839853   -4.34455070910598
H          -0.45345169452906    0.10219158355295    2.59008910326016
H          -0.81101851200046    1.07138591330129    6.33604616763678
H           0.12790865442069    1.14789998028035    4.81679652739619
H          -0.88200924265180   -0.28628815641515    5.17373478117967
H          -4.16626056964581    2.19845371405798    3.36138331754758
H          -4.21126930303657    1.42384278585965    0.82987016906856
H          -4.52232855015939   -0.29663655907898   -0.13205598229122
H          -4.50471616284854   -1.23268529530294   -3.02732623201171
H          -9.28195711523276   -2.44904072007964   -2.11259785787843
H          -8.56824535866798   -2.40985405863736    0.42927953299236
H          -3.97948013718910   -3.24100662394102   -0.22919261550713
H          -2.65473138905719   -2.81401144065995    2.04099090358428
H          -7.60735496827828   -0.66728522398023    1.63038495281654
H          -6.80631879985411   -0.73538882097606    4.58372173908136
H          -8.70822063624207    1.12219776683789    3.55378814331977
H         -10.32500145741001   -2.08511299809809    4.93419109554059
H         -18.32618352239212    2.84899955533554    4.10785950381304
