93
 SCF done       -183.869466714250          0.000895360048
C          -1.93476224893577    0.06091787126937   -2.66760420352424
S          -2.86026678527216   -1.29826822093347   -3.09111369110791
C          -1.61345101102760   -1.95551138207139   -4.11732535250867
C          -0.51854902477393   -1.10393930574589   -4.12518645814531
C          -0.69689659974859    0.05073282965360   -3.28259694960527
N           0.26491929154279    0.98365298860360   -3.14185954771271
C           1.35569657747827    0.79036234708860   -3.82221961231078
N           1.58842657479515   -0.17459804403019   -4.72513286774423
C           0.68040838237912   -1.10186410912110   -4.89325255596291
C           0.85715364911023   -2.06509787829456   -5.92394128277632
N           0.91964055749028   -2.84111793045254   -6.76400594153835
C          -1.80442849389053   -3.22106883366591   -4.75151624988053
C          -0.98027433552812   -4.33467844628914   -4.74234137599507
N           0.26016000323819   -4.48680624263199   -4.10199564584261
O           0.73987651425714   -5.60379116960743   -4.06573845544616
O           0.77005414471985   -3.50198292551028   -3.58579979497452
C          -1.66019132577002   -5.43249217014928   -5.38309155201523
C          -2.90285241669913   -5.02649855471539   -5.73817093554672
C          -3.05248659916247   -3.63727441837054   -5.39190640622387
C          -4.08351041619439   -2.79187303876297   -5.76120985195400
C          -3.96353092034585   -1.40809366947514   -6.08689381970983
C          -5.12334370711673   -0.98728395579344   -6.67302133424849
C          -6.05787824999161   -2.06419082758365   -6.67281658035485
N          -7.39170380517894   -1.92136713415985   -7.09511207064991
O          -8.18688477587903   -2.80747759957009   -6.82836058380975
O          -7.67809361516607   -0.90062341717007   -7.69665603971912
C          -5.46160702245875   -3.19459342406807   -6.10526385412350
C          -6.08016700145528   -4.41961383623129   -5.81938347397461
C          -5.69284264796468   -5.26920023687326   -4.81186327788619
C          -6.28438966267699   -6.52111865450553   -4.60332793680919
N          -6.05515610198518   -7.31557651175281   -3.50108144209090
C          -5.23404892845605   -6.97920431599320   -2.36148447150281
C          -5.91630259135709   -5.96971605264589   -1.44280673368601
C          -6.77072531753772   -8.51347331784253   -3.55791712581396
O          -6.74098182518444   -9.36609867055647   -2.68863166716174
C          -7.47539477281141   -8.45611142797132   -4.82492897070224
C          -7.16274373567670   -7.23531992188734   -5.43836781064484
C          -7.81156130181929   -7.20125395986241   -6.73813573894061
O          -7.79572948191869   -6.38680699427583   -7.63159658699863
N          -8.50363812603979   -8.42576832953610   -6.80825926168501
C          -9.33765549834897   -8.74611034547995   -7.94212966791118
C         -10.81442635357572   -8.50546635886975   -7.64114255626758
C          -8.31811729348524   -9.19182363522114   -5.68627466301182
C          -8.85388375895825  -10.47213045104389   -5.49283318506528
C          -8.61575899891470  -11.17678707986158   -4.33892559366503
C          -9.07691672149356  -12.46335821797487   -4.06547796229598
S         -10.02528723214226  -13.40469158969759   -5.18456554340027
C         -10.11032878920828  -14.75248618289395   -4.10200752463401
C          -9.43328992656554  -14.48602227773419   -2.89059091446443
C          -8.84235847574655  -13.18772293619638   -2.87320873956552
C          -8.12311784738058  -12.75192664147020   -1.75247400655901
C          -8.00142126926873  -13.58837900346527   -0.66312386895112
C          -7.28473520974477  -13.16765854205471    0.48255353303892
N          -6.71262612451686  -12.82291891676076    1.41263047563473
C          -8.59724216789959  -14.88192644199081   -0.67462712141433
C          -8.46741221959883  -15.72284457168054    0.45612127591488
N          -8.37799629513519  -16.41989530014203    1.36051248344257
C          -9.30043644172150  -15.32412506162124   -1.77503977065589
C         -10.79287529405190  -15.90354829359936   -4.52535337021384
S         -10.99167354440707  -17.38638129124206   -3.64550888860446
C         -11.87707394798976  -18.13621868617026   -4.90217415340935
C         -12.03509088848843  -17.29941572686046   -5.98152068370912
C         -11.41992502299732  -16.01745272488893   -5.77856607938834
N         -11.45031590752694  -15.04780697346555   -6.69717186521210
C         -12.07948983591018  -15.32657921746968   -7.81089380596799
N         -12.68633292835804  -16.47478679126305   -8.12192962787744
C         -12.67674609227149  -17.45222146250881   -7.24568880139190
C         -13.31295106946571  -18.68168534076523   -7.56222184282241
N         -13.80798040517740  -19.69481558126162   -7.76206647331386
H          -2.30665279438744    0.78664483758942   -1.97346609271637
H           2.15609616564897    1.50523817632792   -3.68916761704396
H          -1.20917677536555   -6.39424080772197   -5.53321438700966
H          -3.62663617896474   -5.59194744151384   -6.29108198858239
H          -3.05910487177002   -0.83663729016779   -6.00682577144794
H          -5.33574805130803   -0.01374022225869   -7.07306182465698
H          -6.96823362315989   -4.65676723360019   -6.39482481271965
H          -4.92648085284767   -4.95094750728002   -4.11885233292704
H          -4.26905254805164   -6.60024264131758   -2.71059985071716
H          -5.06851358978655   -7.91509095858208   -1.82097383661302
H          -6.12970191665565   -5.04186467891648   -1.96884097811725
H          -5.27103080865296   -5.75231758944734   -0.59656761916013
H          -6.85162577240124   -6.37856497948839   -1.06872009573267
H          -9.16281910975374   -9.78295027753827   -8.24209111824936
H          -9.01565721009911   -8.08443970185426   -8.75081391505228
H         -11.15208436712277   -9.12740821900238   -6.81489151425471
H         -11.40985340756949   -8.73629050528972   -8.51972326455667
H         -10.97393378379707   -7.46251258834970   -7.37923674501446
H          -9.45844001537818  -10.91364632008609   -6.27252316877047
H          -8.01449660687678  -10.70777479935173   -3.57165251558812
H          -7.66519913165736  -11.77474063418016   -1.73363301637100
H          -9.74166928648867  -16.30798815113780   -1.76034266035073
H         -12.23075895954368  -19.14076307009395   -4.78330797356067
H         -12.11727379133274  -14.55381286182066   -8.56542044770312
