97
 SCF done       -179.861195452328          0.000799449302
C          -0.60054317721431    1.68648086549249   -1.29466359351289
S          -0.17589801354541    0.49163299319684   -0.16340813945978
C          -1.52021887284953   -0.52134579320531   -0.58153422439415
C          -2.29584416350208    0.08910493759386   -1.55914489005824
C          -1.74429784383446    1.35145465470898   -1.99127700290470
N          -2.31856667733333    2.08635613552363   -2.96454333734889
C          -3.41459582801148    1.60681640926089   -3.47155780762167
N          -4.10121675828245    0.53698668888588   -3.04344959086934
C          -3.58041407725241   -0.20514405194122   -2.09798038807490
C          -4.39447032747172   -1.22842266984007   -1.53824987854630
N          -5.05240327820997   -2.02466486453482   -1.04297903171045
C          -1.67786359350016   -1.81992101900288   -0.01916797341698
S          -1.28717224083444   -2.18440680854488    1.64535340988735
C          -2.12542791477406   -2.96021810687822   -0.64314675678477
C          -2.50711931333368   -3.35464139366414   -2.00838102541939
O          -2.53298712675673   -2.70558504282828   -3.02629041264151
N          -2.82340295164013   -4.69995641540065   -1.90857138596440
C          -3.26963021568729   -5.49044993267930   -3.03608243683571
C          -2.09024140153904   -6.07681048999946   -3.80372320707125
C          -2.64888877936544   -5.22694632873450   -0.63632208977169
O          -2.85578198671055   -6.38104141117950   -0.34244278668449
C          -2.17511492841306   -4.10176258693555    0.18670883081988
C          -1.75392925925537   -3.86886069623572    1.48349700070563
C          -1.64348106928501   -4.71254454368865    2.61425037877191
C          -1.98350043406919   -6.02984745564310    2.60745679144776
C          -1.86469302645298   -6.84360548387718    3.75763147150171
N          -2.17311037002894   -8.18047096229454    3.78039069931809
C          -2.58995547049874   -8.98562505365844    2.65667330222593
C          -1.41372614919114   -9.35373290739330    1.75659279111747
C          -1.97453926694843   -8.74804262899452    5.05581052135785
O          -2.17733227525518   -9.91409142135633    5.31732049484052
C          -1.51450740705370   -7.63822235648125    5.86387963007604
C          -1.45360997585098   -6.49173223877208    5.04938778608035
C          -0.99123062314325   -5.39778203614520    5.87478297591876
O          -0.76142226437703   -4.23126162782128    5.62143137904546
N          -0.81017976298811   -5.96212034674071    7.15100458117612
C          -0.36130656780572   -5.12214803837128    8.23611616916039
C          -1.52536381134390   -4.62371539442230    9.08969024019569
C          -1.12448341123014   -7.30404941809730    7.16654235174477
C          -1.08011821193675   -8.24955932340306    8.21216890925014
C          -0.81638981113112   -8.07091743222985    9.53902936816015
C          -0.78652625802412   -9.11217949160481   10.49223402915273
C          -0.56099944721936   -8.93580956990879   11.84800800593273
C          -0.58038201817282  -10.19275644378504   12.49856915528888
C          -0.83812678481723  -11.19090856512531   11.44290785489003
C          -0.96395040115538  -10.53767187843032   10.25787483505706
C          -0.94562753269883  -12.57592941706741   11.61111731976751
N          -1.03387433037306  -13.71630741796789   11.71934128216749
C          -0.39389023755883  -10.44853800980430   13.84417325336676
C          -0.36508973178016  -11.70526173141243   14.49587319053976
C          -0.13794892147985  -11.51463220372665   15.84828023745683
C          -0.02645583597595  -10.08243070920260   16.07815284077692
C          -0.17245822501886   -9.43340392053478   14.89392759849948
C          -0.12485357201060   -8.04574909624592   14.73105918393613
N          -0.08116391615694   -6.90100420655221   14.63671280869228
C          -0.00994650178700  -12.47250030447080   16.88009623194234
C          -0.07890620256909  -13.82087478968015   16.70437298826554
C           0.06618188550786  -14.76785442684076   17.73563597388746
S           0.34429070625748  -14.37363103451097   19.40389094156892
C           0.39734446221586  -16.01050667096563   19.88998485905553
C           0.21059370252064  -16.86185897849259   18.82617715412008
C           0.01801488184313  -16.16303575080880   17.58223480689976
N          -0.18000563858685  -16.80811389807713   16.42537982588243
C          -0.18978532359035  -18.11184547339607   16.48557580374911
N          -0.02178244423124  -18.87624133737858   17.57351517596899
C           0.17553869515164  -18.28353233552436   18.72626335605127
C           0.36115920237476  -19.06800136599161   19.89581020794229
N           0.51398169593737  -19.64544549482634   20.87304603002227
H           0.00539241272324    2.55921126827722   -1.42846379050408
H          -3.86505680153554    2.15282459905099   -4.28895661935647
H          -3.85623713276445   -4.83333867833584   -3.68208443566071
H          -3.90430389785483   -6.28727658447525   -2.64184618344840
H          -1.45627260101775   -5.27906164164875   -4.18366843028751
H          -2.45388706460135   -6.66327554639924   -4.64245637229663
H          -1.50045422720845   -6.72102198585223   -3.15541182395014
H          -1.26577411492172   -4.25549289831939    3.52008776131639
H          -2.36016871449172   -6.47954039209405    1.70055210287773
H          -3.35431966642878   -8.45292709798529    2.08593476860704
H          -3.02739747441306   -9.89307036411412    3.08201552596244
H          -0.96546360197216   -8.46345047929037    1.32238178648381
H          -1.75960299459689   -9.99460156434627    0.95098543686792
H          -0.65698762982498   -9.88696154576431    2.32733537025828
H           0.12982537307225   -4.26425230758573    7.76637378485233
H           0.37809851609205   -5.66081037152715    8.83284269993094
H          -2.17949380458136   -3.99800903805184    8.48753444359838
H          -1.14748554204524   -4.03329293624674    9.91979590097629
H          -2.11078239870398   -5.45136497462509    9.48412915996180
H          -1.31456623995083   -9.24800984183635    7.86569553165793
H          -0.62399455326956   -7.08867734075654    9.94232063906469
H          -0.39284071663272   -7.99450729802865   12.33360253274695
H          -1.15885274590349  -10.99431021232995    9.30575901700523
H          -0.49369439359981  -12.64742887430166   14.00199352084651
H           0.14553066428912   -9.62943730187374   17.03754742783720
H           0.16412295368217  -12.08785870679917   17.87871487725585
H          -0.24909648250013  -14.24396751479849   15.72414665078461
H           0.56110305993474  -16.26403001085386   20.91857634700476
H          -0.34950345162235  -18.64684224035273   15.55990429512746
