82
 SCF done       -169.319049418240          0.000902539117
C          -0.89525125470811   -1.34441813416699   -1.65086182191047
S           0.75438307732847   -1.36347272691856   -2.07816079443056
C           1.01992794944915   -2.86444888933362   -1.22971202264325
C          -0.15453460637257   -3.30551462794129   -0.65038478294060
C          -1.25110281022509   -2.42862469262489   -0.89326729151995
C          -2.57496055997086   -2.59688954034887   -0.43174491883052
N          -3.66046094877243   -2.67733496369244   -0.07792766526896
C          -0.29091395869028   -4.57793270523288    0.12246056360083
F           0.41003312967314   -4.55877772171643    1.27555385112249
F          -1.54915938244328   -4.85935595262672    0.45672082904640
F           0.16000105365154   -5.64431691588494   -0.56944113388697
C           2.33916025247299   -3.41503005544617   -1.24348715820002
S           2.86839562512669   -4.70782042682057   -0.20912775854123
C           4.46831638502464   -4.67326320648776   -0.88457088881896
C           4.56186230326096   -3.68366925222988   -1.86657912908766
C           3.36537672143091   -2.97926895945559   -2.05569727757541
C           5.73224791079257   -3.40618626127912   -2.59788417943683
N           6.66263958745018   -3.14296584314320   -3.21293992528460
C           5.49115828147372   -5.55637469448980   -0.47519468419043
C           5.33550824338634   -6.47668279669453    0.51633646705325
C           6.35803313944830   -7.37256336193334    0.89792771560316
N           6.23635234676825   -8.29981765503429    1.90442039101817
C           5.06568150030789   -8.55078304702030    2.71122194192883
C           4.02954558636729   -9.38860207508748    1.96634455937575
C           7.40424572900725   -9.06775990237768    2.05709670261210
O           7.52588120890932   -9.94590805746528    2.88667917206732
C           8.30991415470753   -8.54672612469876    1.05357777717880
C           7.64477729708148   -7.51111732625861    0.36654467785165
C           8.54882586815393   -6.98325314113881   -0.63633765145499
O           8.42042035733712   -6.09382016671541   -1.45177897868318
N           9.71682826702096   -7.74353579654029   -0.48320821661261
C          10.85453559793094   -7.54596770529248   -1.35125467868556
C          10.90685491991680   -8.58788019068897   -2.46532793638094
C           9.59637441287075   -8.68590350987123    0.51186778394509
C          10.61936912972337   -9.58611867558599    0.86278277767433
C          10.48691927509382  -10.52123316744240    1.85136860880618
C          11.50114379776469  -11.44033201977646    2.19589591855344
C          12.74603704871492  -11.61812981065690    1.61957790552058
C          13.42043787499484  -12.68153920981924    2.27327822155759
C          12.50835273182897  -13.15501437821637    3.33623890681408
C          11.37542476044980  -12.41243329196261    3.27797015582394
C          12.77281175274488  -14.15019897678094    4.28642461021095
N          12.96264952461205  -14.93837786546097    5.09895202545139
C          14.66615263636712  -13.18543275575949    1.96677792814854
C          15.31672576265017  -14.31889507956157    2.53943000795639
C          16.54733445586843  -14.47269719108214    1.94164444510763
C          16.71544913722060  -13.41029442680100    0.96714337382209
C          15.59188454941470  -12.64358483943957    0.95941622376978
C          15.38824203671756  -11.53009676691162    0.13845305565127
N          15.24505786674065  -10.62145237485486   -0.55054456019440
C          17.53372534736789  -15.47217167266686    2.17904228781652
S          19.12972724623362  -15.31086966817310    1.50243594218990
C          19.64080867421588  -16.78522467860521    2.19852028565240
C          18.64792666105675  -17.38636745732801    2.91173355352454
C          17.43220316905572  -16.64734218066739    2.91035785813596
C          16.26397112281648  -17.11375993534811    3.54065206596448
N          15.32492121120542  -17.53491686818476    4.04455360199392
C          18.80249421595112  -18.69333963696376    3.62136976528623
F          20.04455654274010  -19.18661941130848    3.49096585596016
F          18.56748366017285  -18.59239990003083    4.93740149655103
F          17.96830581862536  -19.63199618755439    3.14884957759697
H          -1.53350221591503   -0.54519311943867   -1.97167304631084
H           3.25488476199838   -2.18481950811764   -2.77315403747354
H           6.43547344504328   -5.47577501587189   -1.00128891339916
H           4.38945499910130   -6.53239273241970    1.03867334923083
H           4.63699154745766   -7.59940031225755    3.03741185366080
H           5.41592163943613   -9.09917656612887    3.59008953445652
H           3.69425380142890   -8.88596605888173    1.06186482383554
H           3.17033452828823   -9.56261997325285    2.60769443513273
H           4.45723842556265  -10.34934248407465    1.69061610926273
H          11.77318404651831   -7.56188293119418   -0.75916933025060
H          10.73236561184662   -6.55034498381454   -1.78647089772179
H          10.97255224801899   -9.59462227447913   -2.05860986388212
H          11.77552479042807   -8.40857554018692   -3.09201884674553
H          10.01322338458403   -8.51965107774753   -3.08087580067976
H          11.54936857601865   -9.52344887530158    0.31728966015816
H           9.56023399339710  -10.57649651952946    2.40759994628806
H          13.14906319971197  -11.07081673068976    0.79166822194195
H          10.51535718035479  -12.49799851472101    3.91586412625286
H          14.89793905046210  -14.94010829600487    3.30601689429439
H          17.58743004859326  -13.27641259159376    0.35334705983326
H          20.64151354208810  -17.14030104066619    2.05024928879406
