61
 SCF done       -138.244024806091          0.000568366872
C           3.27505030911972   -0.62839384804423   -4.26752560563755
S           2.37358646138468   -1.22009875937365   -2.94373588456957
C           3.73960670307174   -2.09392110325933   -2.33174801930056
C           4.83197564628971   -1.93315432894568   -3.15012466299529
C           4.56689049982792   -1.08089385275903   -4.26371904693427
C           5.50375876090818   -0.70746306794974   -5.25076564315749
N           6.24459393855592   -0.37245436734312   -6.05645177805575
C           6.14365475441342   -2.61582089152970   -2.94585584362421
F           6.00969919186107   -3.85522918255843   -2.43588030649209
F           6.85219367054366   -2.74285266485209   -4.06411722707410
F           6.94016674347276   -1.96063584587399   -2.06289321300857
C           3.61096223355124   -2.87518230116697   -1.11244997798081
C           4.59593490236103   -2.87097641116872   -0.13064777344780
C           4.44103237698527   -3.67014016490108    1.00430342048020
C           3.24128056682707   -4.39143703168190    1.11103457561895
N           2.29222517947409   -4.36768214852597    0.20246960666864
C           2.46644037436693   -3.64781517543417   -0.88631514621361
C           5.45081023552549   -3.74477494367818    2.02479398741692
S           5.07152331070124   -4.34813115638768    3.61471367927359
C           6.69017564342530   -4.14550129095654    4.22079299853995
C           7.50435331300522   -3.64493170737602    3.21090318539841
C           6.79409775076896   -3.42506983972113    1.98235049111660
N           7.68077314879407   -2.97342136327364    1.05516326143554
C           8.92705466066659   -2.91385958057577    1.64516232134668
C          10.06105360266040   -2.49465727165393    0.93252710879760
N          10.99372879083428   -2.15457391066895    0.35852797210795
C           8.85908524998552   -3.30852494561144    2.96133734637203
C           7.00332316321673   -4.48965963816154    5.57793806390195
C           8.20811408035750   -4.10088520395414    6.16403375980771
C           8.51767833131996   -4.45673389762319    7.46535328603708
N           9.81630682933769   -4.05087281099560    7.94276850169124
O          10.34052529926245   -3.10913174896496    7.38686565114139
O          10.31984332959690   -4.67651770796128    8.85229453109616
C           7.63151959258002   -5.20739465579234    8.26147899695844
C           6.41514659582820   -5.57038075715019    7.66344480300937
C           6.10951600556754   -5.23061814053740    6.36877053736762
C           7.90980085859774   -5.54693888194755    9.63680883761739
C           7.42689792023177   -6.63705481622760   10.26152034515920
C           7.72345770355953   -6.96754581475986   11.61715590320048
S           8.73750136421941   -5.99529534397493   12.63713895376944
C           8.55447321920836   -7.08097559388939   13.94676151822138
C           7.75944296434558   -8.14226782001858   13.63410548412450
C           7.27469477052013   -8.08981754713751   12.29856773496003
C           6.42968434226618   -9.05246450090385   11.71943479337999
N           5.73752578814354   -9.82058503413732   11.22477600921534
C           7.42335651730467   -9.25183853548352   14.57687086149024
F           7.99851873480606   -9.08302074943389   15.77671933350469
F           6.10226415653053   -9.35152417851314   14.79605141110325
F           7.82733726964878  -10.44813696512183   14.12210614862207
H           2.82276893366058    0.02255727860315   -4.98921889723393
H           5.44789915167113   -2.21635727957299   -0.22128173240584
H           3.05040046781752   -5.00921647734325    1.97871374358424
H           1.66828900380661   -3.68215911198210   -1.61549427764636
H           7.51331652819625   -2.78881440643278    0.08111371675894
H           9.69470314519427   -3.35497614708633    3.62920275479337
H           8.92241768112146   -3.50934584223117    5.61632359389807
H           5.69228832473181   -6.11516129666322    8.24989854005540
H           5.16463827249544   -5.53761965456898    5.94530950993697
H           8.57652241600087   -4.89608348246994   10.18691205887407
H           6.80987221868823   -7.35693119289242    9.73967609271717
H           9.03977700076842   -6.88971488938150   14.88362960518555
