96
 SCF done       -176.167644087432          0.000585317811
C          -4.36592771685611   -0.46018384706633    6.75688536836642
S          -4.15847559642702    1.11107456690197    6.10205923702081
C          -5.64083906678015    0.98558666678297    5.19859762896894
C          -6.23293315161556   -0.25710431264299    5.41474829023819
C          -5.49573503720089   -1.06891339360698    6.30903783358526
C          -7.38713538031494   -0.72613806245998    4.76577715754162
N          -8.29619555543839   -1.17422857486905    4.22807161232008
C          -6.06199570516418    2.07137187448172    4.39012851709350
C          -7.31746080029395    2.22597293956142    3.89154277465687
C          -7.71740898823268    3.29718056440446    3.05739160569191
C          -8.97474235249530    3.88243194674451    2.98811791656914
N         -10.13395032834757    3.51993255117319    3.69512675459146
O         -11.15071867942986    4.14959858502091    3.45761248178277
O         -10.06599938028173    2.60924591917434    4.50408861356314
C          -8.92264414809785    5.02277466697992    2.11708173743416
C          -7.64612342432886    5.17999796612692    1.67908059747495
C          -6.84412838855454    4.10689438940934    2.18894181138648
C          -5.56193907890284    3.78038092742869    1.78179519345409
C          -5.05581288704905    2.45626381045476    1.58648420237124
C          -3.89171272167614    2.52650056566040    0.87858786791787
C          -3.56227093067272    3.89839884215168    0.66302415989909
N          -2.38278291052613    4.30786735652125    0.02502884217472
O          -2.16093136394187    5.50654333241366   -0.08982038686173
O          -1.63789456597889    3.43749426721592   -0.39189925997970
C          -4.55646545867660    4.70556593040492    1.23341399821328
C          -4.50516750548342    6.09862233346373    1.40620492654701
C          -5.23234948868353    6.76864609082980    2.35637916221713
C          -5.34586682345975    8.14361241526905    2.60635597617979
N          -4.77963006611917    9.23895769107359    2.00258208408767
C          -3.86436495237101    9.27451700990923    0.88368392656089
C          -4.58433043499028    9.05855723544302   -0.44447758737385
C          -5.23651198273573   10.44333891950793    2.57366788440949
O          -4.87242627832418   11.53950987902941    2.20623735920448
C          -6.16072839289428   10.03241605789984    3.61685199409549
C          -6.19581797713822    8.63463535515321    3.61415563830243
C          -7.12192428431986    8.18783288870937    4.63453439756156
O          -7.46626351785580    7.08037490007145    4.98543566444085
N          -7.58900071678889    9.38396837353686    5.21097624319993
C          -8.59518741655084    9.36573128509504    6.24653012911803
C          -9.98730464560496    9.65210111345220    5.68943517913879
C          -7.03768283385345   10.49609213923602    4.61887727731586
C          -7.32411866673096   11.81699107752839    4.99976653724975
C          -6.76783070231309   12.90245235466165    4.37623509900137
C          -7.02481090675114   14.24336744883084    4.72162617350504
C          -6.49508542569897   15.35128230200262    4.07465332835858
C          -6.98329220126932   16.53295665488069    4.68688419736770
C          -7.86074122697487   16.08885383072758    5.78589771551928
C          -7.87946881574047   14.73034809964977    5.79433659244597
C          -8.56411634564334   16.90061625532813    6.68316757805693
N          -9.15423115429544   17.53397746875604    7.43844346738979
C          -6.72135534179764   17.84225734732438    4.33518118637473
C          -7.23231269656155   19.02029263319773    4.93891938846503
C          -6.74124696767092   20.12037861593194    4.26803029926476
C          -5.87808011537659   19.64678405155766    3.19668695524109
C          -5.85497951213309   18.28985919187106    3.22499581715320
C          -5.12711661419684   17.48541556293215    2.34124955529062
N          -4.51332617934266   16.86432289258461    1.59528253005210
C          -7.00758798261464   21.48744716750327    4.53188769313264
S          -6.31873145992142   22.74959087546067    3.54382902938702
C          -7.09310070004015   23.98904995122254    4.46566605141787
C          -7.84961717413721   23.43009907875851    5.49596038471298
C          -7.79716212200500   22.02655853175501    5.52623522074788
C          -8.60648200009386   24.15303985368997    6.43626450838153
N          -9.23687952452137   24.69282170375344    7.22783553194153
C          -6.88595930109815   25.35801150668052    4.09037149339588
C          -7.41209075275528   26.42315034389859    4.69638745257109
H          -3.63600004433992   -0.84997580596206    7.43847179665751
H          -5.80262591159608   -2.05954480132831    6.59293092553063
H          -5.32265539574878    2.84499303294822    4.22590224573751
H          -8.10414132126030    1.55226182882736    4.20691742775273
H          -9.77765815475799    5.62688417255947    1.88042153353880
H          -7.30208838384395    5.91054589042859    0.97315349180704
H          -5.58798019605645    1.56071580275331    1.84201678209634
H          -3.29481638680884    1.70823470155697    0.52266739997758
H          -3.78660925568399    6.61442600037394    0.78683734725663
H          -5.82788198647478    6.18350134257165    3.04656049098361
H          -3.07303656279949    8.53695201566729    1.03158546221196
H          -3.41696742235221   10.27256679951453    0.89450666876103
H          -5.11985737329999    8.11205100607633   -0.45399686215433
H          -3.85957200858437    9.05456443493366   -1.25305883250686
H          -5.29607162290530    9.86226954409543   -0.61732730142507
H          -8.32919286167385   10.08319592561653    7.02762223127004
H          -8.57232542634737    8.35880067763320    6.67208343211036
H         -10.02516191949939   10.62738662390030    5.20876516361314
H         -10.71632687137009    9.62918157798814    6.49434089527632
H         -10.25728376287795    8.89466356087170    4.95789372304405
H          -8.01345853525409   11.96414649255378    5.81816509411731
H          -6.08376495460043   12.74239628247713    3.55254519619712
H          -5.82529226236942   15.31662665565695    3.23770610563237
H          -8.43173113321652   14.11918044024937    6.48350544754987
H          -7.89767228146833   19.03704103777540    5.77826381968214
H          -5.35412819192260   20.28431203422643    2.50823164436476
H          -8.32122693640936   21.43354780195383    6.25413437149305
H          -6.23936880749633   25.49192490340597    3.23199635381134
H          -8.06079487130909   26.34060477183224    5.55053627391975
H          -7.20208433362003   27.41674728278310    4.34176307429753
