102
 SCF done       -183.635198727010          0.000558182467
C           1.96714795458499    6.61772211595552    0.57045606091919
O           2.94689762178854    7.64377326607331    0.69830100870948
C           2.27134997633194    8.48057753141317   -0.23927481034562
C           1.21806312536861    7.39056301274990   -0.53604835394804
C          -0.17982456096590    7.76883262507033   -0.24872962900980
C          -1.19230186052435    7.54346310990341   -1.10025973447129
C          -2.57019981908175    7.89905158896099   -0.92914914618233
C          -3.18051188752558    9.00110309728480   -0.36297093220415
N          -2.62619855037013   10.11485792276584    0.29743577842484
O          -3.34206157340119   11.09373956586492    0.41294370816279
O          -1.48291221709708   10.05720771370758    0.71685771343850
C          -4.59939588815534    8.97001590941049   -0.65971597826622
C          -4.86668943444224    7.88969938058377   -1.42533581539673
C          -3.64639823919258    7.15059297457648   -1.61432627470886
C          -3.52362025247202    5.89467748743403   -2.16966279278586
C          -2.58765067789628    4.88880622293179   -1.76452353722164
C          -2.97470238270922    3.68905630377509   -2.28417315298640
C          -4.11810772476151    3.89092838219138   -3.11651645990798
N          -4.70815287521990    2.85688899488038   -3.86245613139159
O          -5.65198028927644    3.12495621638357   -4.59328204478263
O          -4.24635126093823    1.73784488871512   -3.73058665120244
C          -4.46317955152950    5.24744692054052   -3.10431497788192
C          -5.37760446576240    5.87821080994274   -3.96558430383126
C          -5.31848986800517    7.21092238703240   -4.28029498925008
C          -6.15993098998564    7.98464799403847   -5.09331194854489
N          -7.25810981188912    7.66180811033757   -5.85173627281417
C          -7.88202754990758    6.36874504616690   -6.02631202108444
C          -8.78095727898148    6.01032155722518   -4.84637441230485
C          -7.80103695577330    8.79392363384441   -6.48670066546303
O          -8.76372219593870    8.75115716213339   -7.22594651583761
C          -6.95995399498943    9.90020865469109   -6.06219922812226
C          -5.96907213779707    9.37191455893669   -5.23177889957362
C          -5.11465752527243   10.45351769543789   -4.77557733618969
O          -4.14667878378802   10.45996718940442   -4.04912879761029
N          -5.67058244845223   11.59757447558421   -5.37782249356630
C          -5.07802292581997   12.90359276050188   -5.19291476169708
C          -4.27034936227337   13.34478555831035   -6.40971702758794
C          -6.76375043971665   11.29784206965974   -6.14914426388947
C          -7.51000558691290   12.25511112655179   -6.85539653775506
C          -8.59784680009493   11.89395616186120   -7.60820758471745
C          -9.42459036234863   12.70754964171898   -8.40610973881952
C          -9.24360050893548   13.94989614159991   -9.03284857091434
N          -8.19885941507927   14.88765938214931   -8.94442430653553
O          -7.42728987280828   14.84856875241805   -7.99782951447903
O          -8.12428930895775   15.71246226656602   -9.83852984734379
C         -10.31484598824599   14.17111774684092   -9.95784392996284
C         -11.14916044175228   13.09782067403964   -9.94519799471899
C         -10.66776705111808   12.15679025764928   -8.97672647523904
C         -11.33519171705447   11.02861701352554   -8.54825526134940
C         -11.34418608139077   10.47702832733668   -7.22851066790601
C         -12.34928001193093    9.56589542479991   -7.14620625594335
C         -12.97023405912398    9.43441019889933   -8.44153144870516
N         -13.99814936898804    8.50660944513509   -8.69880935239668
O         -14.47161525026756    8.45782373888603   -9.82031411772437
O         -14.36118242397706    7.80829931601612   -7.76875746712854
C         -12.35699864303833   10.29323711479602   -9.33106045270229
C         -12.51859747792689   10.36072720293734  -10.74509661212996
C         -11.52696407107976   10.66432022675212  -11.60090503582566
C         -11.71051179367577   10.76681353699949  -13.06553413642662
O         -13.05760367982081   10.71640291005814  -13.52710633853257
C         -12.94488426284610   11.97526609215361  -14.18979676238661
C         -11.52253356487823   12.20103227049599  -13.65084440378501
C         -10.42377664387752   12.37648067882415  -14.63264683678784
C          -9.43122800592075   13.23515034377997  -14.47863305215648
H           1.39732009216787    6.48332578343964    1.49501519702467
H           2.40773316819348    5.66503862610064    0.26561010974647
H           2.91240943130449    8.75606867430830   -1.07968460483749
H           1.86572776129617    9.37956720176053    0.23263425917090
H           1.32160051500936    6.94153760687160   -1.52468726502947
H          -0.35195579640756    8.24412040472802    0.70442626792835
H          -0.98221164542870    7.01633026575708   -2.02423095572297
H          -5.28656439927535    9.71194550448478   -0.30043402287589
H          -5.83319860135271    7.56151681696197   -1.75331654961608
H          -1.80134495714236    5.04292658957328   -1.05135676425715
H          -2.52104041292813    2.72969282405190   -2.12090004946520
H          -6.09036533267686    5.22224281998658   -4.44248332880868
H          -4.50774708824244    7.79707157098532   -3.86542705083648
H          -7.11464528720628    5.60918069921991   -6.18726004102725
H          -8.48943198210861    6.44753224023251   -6.93245394896670
H          -8.22911073505846    6.02871781127692   -3.90944823411193
H          -9.18683649665529    5.01363021346769   -4.99025888972756
H          -9.60536872648393    6.71593651622644   -4.77772063159924
H          -4.41972184028633   12.81146944046762   -4.32474032591892
H          -5.86166874944516   13.63150861588153   -4.96950991632436
H          -3.51712055884642   12.59873451847089   -6.65196922319984
H          -3.77061979584987   14.28300495827514   -6.18828342216752
H          -4.91215816617439   13.49422398207603   -7.27386477259261
H          -7.21363557455414   13.28930447785386   -6.78576736608889
H          -8.87504039977286   10.84729717435697   -7.60629989203855
H         -10.41083832463466   15.06906043778814  -10.53910337179983
H         -12.08154884225647   13.00542852742893  -10.46605320142653
H         -10.74914577028364   10.83355686152899   -6.41122158782540
H         -12.66634982288898    9.01259155772641   -6.28246959397835
H         -13.47727701439296   10.05985691897798  -11.15020621474355
H         -10.51497748944552   10.84230516475338  -11.26165211105030
H         -11.08413152712861   10.02330385310944  -13.57949892340950
H         -13.70236130084876   12.68523099855209  -13.85020821880796
H         -13.00527993419453   11.86360553655448  -15.27623732451501
H         -11.46896424006781   12.96122449234044  -12.87114813683576
H         -10.46888038489157   11.73456199159082  -15.50267956997956
H          -9.36564328372185   13.88006010706636  -13.61764616166701
H          -8.64658700461918   13.33251732471763  -15.20828536570372
