85
 SCF done       -183.554463358463          0.000724975077
C          -5.40471055371712    0.14334618372312    0.32238394201211
S          -3.92119123294090   -0.58819719143862    0.72734556845915
C          -4.21658571526126   -1.90774834574402   -0.36148184201240
C          -5.46072684048467   -1.78239126362693   -0.96029722862345
C          -6.13856527455603   -0.60398286745177   -0.56067692475400
N          -7.49707623688808   -0.28395860622554   -0.90236208823237
O          -7.80702988498921    0.88320939520797   -0.86773979163350
O          -8.22977105976752   -1.21245273137898   -1.15198603361399
N          -6.00116337156596   -2.73929682090974   -1.88135295900136
O          -5.90539202149047   -3.91165148206706   -1.57873055259336
O          -6.47856852317336   -2.31876780453808   -2.90558673906065
C          -3.25179144480185   -2.93177867458678   -0.63323665670174
C          -2.47202494150971   -3.65022970245985    0.26304179383393
N          -2.29776773195895   -3.39457830052394    1.62814389415861
O          -2.60800688831993   -2.28176769392859    2.04445634975068
O          -1.84048961365467   -4.27755097158244    2.32420533637037
C          -1.86737458839065   -4.76370318419188   -0.41516576622056
C          -2.26276126604593   -4.74277055872528   -1.71271844807151
C          -3.09478854191247   -3.58672277669938   -1.92415515657678
C          -3.45099134425522   -3.05879869489943   -3.15621945798753
C          -3.54485545055781   -1.68441021096863   -3.49784459294103
C          -3.61723941023534   -1.57334157913023   -4.86145439831833
C          -3.65727374930238   -2.87778160081181   -5.43384512615542
N          -3.84084141196201   -3.10446026709266   -6.81309808916786
O          -4.08615205247813   -4.23656925034858   -7.18965975055478
O          -3.73660229200375   -2.14078130851286   -7.54940955262278
C          -3.59525555161454   -3.82899409337050   -4.41324672471086
C          -3.83991657417047   -5.20550322034017   -4.50722393915353
C          -4.37233292318064   -5.93829002590909   -3.47329306992898
C          -4.70443491121430   -7.29549102962440   -3.58574720659993
N          -5.43835293815874   -7.98035478211420   -2.65345513101714
C          -5.88668326556710   -7.47105463672884   -1.37646615409646
C          -4.76101067037358   -7.48272100404623   -0.34579316794078
C          -5.72184540482291   -9.29813189282212   -3.06078028057906
O          -6.36311814233829  -10.08893779897435   -2.41214417262638
C          -5.07258959702712   -9.40775950556497   -4.36073787566695
C          -4.44457130022442   -8.18978259066014   -4.64395435839811
C          -3.76366585088847   -8.33017496092534   -5.91594493709078
O          -3.02668988843443   -7.59519009638873   -6.52893787313163
N          -4.09162495665426   -9.64205189727351   -6.34775935658883
C          -3.58860656345071  -10.10646887572629   -7.61879625350993
C          -4.57399442071529   -9.82316382478357   -8.75061588310597
C          -4.87947884977392  -10.29067645123634   -5.43755126511691
C          -5.46287418083464  -11.58072702774516   -5.47908736128161
C          -5.55525618532801  -12.45055467512041   -6.51746842322488
C          -6.23736957431672  -13.68938421721460   -6.38190751152273
S          -6.46860343246826  -14.78751580740161   -7.73999209933353
C          -7.33709787750896  -15.79987869884545   -6.60041826638818
N          -7.37378437444428  -15.28404547372099   -5.40038409875694
N          -6.77805784449817  -14.14148121192047   -5.28140710818756
C          -7.93571769321921  -17.03501058793762   -6.98398737255931
C          -8.60548124704178  -17.79059624344915   -6.08789737798665
C          -9.27192612599614  -19.03308056235446   -6.32544633936334
S          -9.72334365947802  -19.97037205303216   -4.92004885351991
C         -10.45681623318098  -21.17638896000998   -5.86691507139265
C         -10.38347151439743  -20.88700217955510   -7.20158699493339
C          -9.70955160243966  -19.66570429587171   -7.47370782198737
N          -9.68571605838549  -19.09937522202560   -8.80679614054827
O          -8.62073676803258  -18.75709079693085   -9.25794383259356
O         -10.76083938570629  -18.98045602771885   -9.33777777575171
N         -10.84537790973568  -21.79873516934628   -8.21335936606069
O         -11.67161637147765  -22.61269598295713   -7.87614033893687
O         -10.33777187495715  -21.70206046413112   -9.30555727922416
H          -5.72747629142409    1.05477917264413    0.78712212912809
H          -1.20597613399604   -5.45901907726151    0.06442057089805
H          -1.93004535716444   -5.39546996996279   -2.49569076422302
H          -3.45133154491988   -0.86951013589348   -2.80570128214945
H          -3.65562866419701   -0.66801152149801   -5.43761549122982
H          -3.70287466153258   -5.66386355380366   -5.48084497054884
H          -4.66249633468338   -5.43400540821806   -2.56284530362138
H          -6.69201921211300   -8.13412943121481   -1.05078035124424
H          -6.28280618664416   -6.46087310122735   -1.50049173084465
H          -4.39684644832919   -8.49642654613387   -0.19720314834986
H          -5.13340978839887   -7.10585743234510    0.60184974749105
H          -3.93180022466704   -6.85562772815301   -0.66592489967731
H          -3.34290828322291  -11.16769307060795   -7.54474865989745
H          -2.66777542737490   -9.54514182562622   -7.80433845304033
H          -5.54351491675948  -10.27738830747340   -8.55836516813919
H          -4.18085134690222  -10.21104118128084   -9.68601762943957
H          -4.71299299347901   -8.75003317182536   -8.85291416911162
H          -5.93756664753817  -11.87092625143207   -4.54950902012182
H          -5.16079249180305  -12.24144523179375   -7.49846357084882
H          -7.81323254057070  -17.32863385184397   -8.01576478823595
H          -8.62842429665531  -17.44633135876987   -5.06207568817840
H         -10.89437704376792  -22.05373236398001   -5.43145600569584
