82
 SCF done       -170.385598127459          0.000743668542
C           2.60548528293203   -0.72703980030229    0.07435090447606
S           2.21698774015527   -2.36740217143117   -0.16267366676235
C           0.95882886704879   -2.32050942257752    1.05196118689104
C           0.87502419845973   -1.05451137327940    1.59852023140332
C           1.81943788492574   -0.15408027878313    1.03222463806681
N           2.02585746066441    1.19579595468679    1.48709458703603
O           2.57181181627247    1.94939721998155    0.71714192138551
O           1.67779907623821    1.44903764654705    2.61511645126233
N          -0.15704382168971   -0.59762230115725    2.50354810824857
O          -0.32365039981306   -1.21423397825573    3.52659980694680
O          -0.79554207241784    0.35182589164556    2.12365446353497
C           0.17898745385530   -3.49641424678256    1.27785794314562
S           0.20225580437097   -4.75797076033932    0.07052027872058
C          -0.88679839977392   -5.74537328697458    0.99818481298037
C          -1.22377094030258   -5.10020745182740    2.19099042493231
C          -0.62083862063455   -3.84216387559491    2.34438418908887
C          -2.07162024910157   -5.66670175916446    3.16318712674519
N          -2.74728971995502   -6.11323303268842    3.97306209459054
C          -1.34141861581074   -7.00832795605738    0.56050710149339
C          -0.92135049867958   -7.59527829507702   -0.59421822515196
C          -1.39695283040649   -8.84643391579349   -1.04270162070761
N          -0.95228162516658   -9.47557430000535   -2.18092728801568
C           0.10429361196559   -9.02975980901815   -3.05723902404650
C           1.48552174794704   -9.27558958974786   -2.45557183370565
C          -1.61514132036157  -10.69537572198856   -2.40109685594928
O          -1.38150935492484  -11.42354390237476   -3.34449848233763
C          -2.55093764059896  -10.79925659269558   -1.30015769509573
C          -2.38853293581156   -9.66074157877673   -0.48600476134330
C          -3.34209603907404   -9.74661253593834    0.60395144769902
O          -3.56759437432458   -9.00678981443623    1.53721256441532
N          -4.03365285918615  -10.94427717640685    0.36408846439447
C          -5.05715465248121  -11.40952104230078    1.27199795249953
C          -4.53630067771256  -12.49806057118851    2.20598361798261
C          -3.57907262494338  -11.58896972930414   -0.76085427067487
C          -4.11416688012217  -12.79825805835984   -1.24517243384406
C          -3.63107859643970  -13.42545017648754   -2.35943680629329
C          -4.16321013105471  -14.62131974050641   -2.88817038932766
C          -5.24256791539807  -15.36901926547119   -2.45444659157391
C          -5.42194823132804  -16.48111682389267   -3.31852567776387
C          -4.35254100357520  -16.38754800836393   -4.33683081080448
C          -3.61743330647545  -15.27979350257893   -4.07167752223730
C          -4.12822210263763  -17.27597589246689   -5.39496304489701
N          -3.92564891976612  -17.99140777749992   -6.27042901913634
C          -6.40463017811456  -17.44383741561136   -3.25010365716107
C          -6.59767449589515  -18.55027506848812   -4.12992632324170
C          -7.70535208019612  -19.26052910515810   -3.72955111011332
C          -8.26134774400336  -18.60554503432120   -2.55613825553676
C          -7.49045573791704  -17.52262101310515   -2.26280607647933
C          -7.71025967138845  -16.63996757197724   -1.19940255529153
N          -7.89271130018622  -15.92117894942580   -0.32202872218322
C          -8.19650184801686  -20.42793964615582   -4.39299776705531
S          -7.46658799305424  -20.89952436731735   -5.91521914541428
C          -8.45731443009891  -22.27308224677537   -6.04326658761151
C          -9.31270687951614  -22.38698108836204   -4.98016919269274
C          -9.17001228512942  -21.33623978367861   -4.03632050785691
N          -9.89542016240558  -21.33019973461956   -2.77656109458700
O         -10.67001937814780  -20.42848088160434   -2.58475481692601
O          -9.60881507248163  -22.21443302338146   -2.01029856917830
N         -10.30783355099506  -23.41366286481981   -4.88762434720363
O         -10.18504805201443  -24.36515623916334   -5.62371989237281
O         -11.20795370982371  -23.23225591194200   -4.09959084443815
H           3.39766314310636   -0.25120564415913   -0.46983409374933
H          -0.75633711300871   -3.23032409021083    3.21880300191111
H          -2.06317687162244   -7.50751896357721    1.19659167469591
H          -0.19080577129179   -7.08271420184837   -1.20695774900982
H          -0.03687652892811   -7.97070509848744   -3.29096513612530
H          -0.00325887105049   -9.60997569890216   -3.97783452117207
H           1.60445696565008   -8.74243651059214   -1.51488405528122
H           2.25185573728868   -8.93916627504719   -3.14803962901084
H           1.62692639629185  -10.33756581041425   -2.27117713343292
H          -5.91822062543353  -11.76551625139679    0.70047379110012
H          -5.35909306177662  -10.53721912512832    1.85794262206204
H          -4.18280498875020  -13.36071117919537    1.64542313458911
H          -5.33267806481290  -12.81803748759063    2.87137894625875
H          -3.71571557430094  -12.11302355542595    2.80639952071283
H          -4.94437733586528  -13.23285322736872   -0.70810469212791
H          -2.79224411218972  -12.99037689334527   -2.88709267842586
H          -5.86708650343451  -15.15868730216816   -1.60989578158840
H          -2.76856315170814  -14.92112537515544   -4.62388293422809
H          -5.96710187799625  -18.78699516225620   -4.96458350550339
H          -9.14839333491993  -18.89734670527328   -2.02806514906626
H          -8.40000747076358  -22.93660669374700   -6.88410046540428
