108
 SCF done       -196.112995560826          0.000201374292
C           4.89190984178545   -2.96244099954748   -5.81895517831009
S           3.35282098931290   -3.68883727231310   -5.83237108531288
C           3.33458043279224   -3.86296614349438   -4.09780983509880
C           4.51843227730295   -3.34367895550999   -3.54644571646425
C           5.40658037621151   -2.82944153814891   -4.54277444443772
C           6.64162113525402   -2.27176939973969   -4.15380551697171
C           6.98780197866095   -2.21115656981083   -2.82719664829389
C           8.27515685195539   -1.64179482816022   -2.42761988087242
C           8.86821095746962   -0.62469090044501   -3.03701843042032
C           6.09374710400272   -2.71511192771555   -1.83008180332083
C           6.45755250605857   -2.62156929358894   -0.38173586364355
C           4.89281127386120   -3.26517610725878   -2.19443807277814
C           2.26515581749043   -4.44043105868076   -3.39669792699218
C           1.11995019163263   -4.92739761297506   -3.95836820034644
C           0.03366116920821   -5.48623777985952   -3.26055055336933
S          -1.10775336989083   -6.46491658639084   -4.13688691897147
C          -2.01549766991064   -6.90580312327358   -2.71231429057046
C          -1.43446962284710   -6.29570168200950   -1.57942737881909
C          -0.30808693057807   -5.46142239209413   -1.89795078541843
C           0.27400430079789   -4.69085553292667   -0.88075506428189
C          -0.10868296316134   -4.85705090272523    0.42574940211903
N           0.43154622674959   -3.94241050631825    1.39902973603011
O           1.56220706219637   -3.54581182733977    1.20327084397865
O          -0.29689884158294   -3.58606122927971    2.29514886356237
C          -1.09169301401193   -5.82452189593767    0.75968852504260
N          -1.30649052339644   -6.24216095307306    2.12063899331028
O          -0.35463940860335   -6.17990221146324    2.86784410134196
O          -2.39475147299282   -6.69667852890060    2.39761898648106
C          -1.76579431315618   -6.49401709883991   -0.23229662313452
C          -3.15432661539575   -7.72158024992050   -2.77902812950286
S          -4.32814029347291   -7.71115092228429   -1.49113760719333
C          -5.32085311044091   -8.92129583327909   -2.24009624546642
C          -4.76672488791133   -9.30608608522082   -3.47965005346766
C          -3.56417640435290   -8.61611740499951   -3.79923431975756
C          -2.92746539387315   -8.91263833799210   -5.00905262024923
C          -3.47196296351387   -9.80974170620335   -5.90773904810248
C          -2.74940921950890   -9.99366554717563   -7.16869228656252
C          -3.28701026120752  -10.09274363082505   -8.37622693388347
C          -4.66513556705896  -10.50651697590376   -5.57839288616755
C          -5.25104148466963  -11.54813775615288   -6.48115550698280
C          -5.28074502263316  -10.25154202697470   -4.37638954464684
C          -6.47222164128181   -9.41572075260147   -1.61927531251593
C          -7.06950396460846   -8.85328904775996   -0.52238698196986
C          -8.16571943395039   -9.40923797135515    0.14691605047259
S          -8.67962938163187  -11.04839185145057   -0.13524451273003
C          -9.94778711686736  -10.98623311170584    1.05998815381515
C          -9.97894520372445   -9.70462696749912    1.65056952531983
C          -8.97499995451721   -8.81970222985322    1.13287474215827
C          -8.92088883545804   -7.49002073243639    1.57239659668442
C          -9.80060927883790   -7.04644404441624    2.52755826973762
N          -9.86253500193566   -5.62703679067202    2.78372522956144
O          -8.83167013375846   -5.00141040350389    2.68940404317148
O         -10.96018964941153   -5.15997786095413    2.99098337467003
C         -10.71883033565128   -7.94902583458022    3.12287135197982
N         -11.48219127157632   -7.58570583283006    4.29246985739277
O         -10.96739240518418   -6.81226044046543    5.06695466458643
O         -12.54939845750131   -8.13782922330278    4.44645439918348
C         -10.80750230183261   -9.24703881294406    2.68523102304803
C         -10.78867304898569  -12.08993810172202    1.28794634890631
S         -12.34164908201040  -11.88961649840723    2.05178890447267
C         -12.73362818623480  -13.56516936930535    1.94095747605025
C         -11.69078728607631  -14.27576640430442    1.33607719257647
C         -10.58966971228120  -13.44969987773218    0.95729405809254
C          -9.46776189898578  -14.05257649776711    0.37384467552035
C          -9.42266191617312  -15.41136810253134    0.14819586187969
C          -8.23894424148824  -16.00831148247725   -0.46532743661505
C          -6.99980865547228  -15.55481738990778   -0.32309438133081
C         -10.53497748654521  -16.23013225139192    0.50342748465862
C         -10.49067682017049  -17.70914097195149    0.27111327188334
C         -11.63231115922351  -15.66148901525369    1.08958532921300
C         -13.97368502033206  -14.07545701286878    2.43409120291678
C         -14.91683671341867  -13.34192049277303    3.02967539187775
H           5.34649819303426   -2.66300073249107   -6.74264135322517
H           7.31623616063944   -1.90978178008686   -4.91435336788123
H           8.74865759149798   -2.09709197098889   -1.56851912484959
H           8.41691567253929   -0.11580744967995   -3.87255261331570
H           9.82134642639152   -0.24757679595115   -2.70836258493455
H           7.28905200862555   -3.28860892652673   -0.15203344468763
H           5.61353475064449   -2.90223498268946    0.24292867774461
H           6.76004534342420   -1.60742201796136   -0.12612819992813
H           4.22530795464152   -3.63355641340786   -1.42995424377554
H           2.41400089583062   -4.52301317409057   -2.33166643173496
H           1.04377527416225   -4.93715592266856   -5.03891506534433
H           0.99075603654474   -3.91872667659068   -1.10809955613252
H          -2.51214892350163   -7.21400337924888    0.06439674474437
H          -2.00269827266067   -8.42214156065053   -5.26719909330587
H          -1.67029128811355   -9.97585679451507   -7.07160712165847
H          -4.34882729647043  -10.05386598004242   -8.54380298324576
H          -2.67142810212852  -10.18479834194347   -9.25490637733104
H          -4.47770601025185  -12.04436863076595   -7.06178193061640
H          -5.96098384530383  -11.09652955393583   -7.17393919981974
H          -5.78905313077898  -12.29094993542070   -5.89592597425872
H          -6.17967643277529  -10.78999378218095   -4.11593381397425
H          -6.92102242682549  -10.29971266594854   -2.05374418337118
H          -6.68513778954347   -7.91666351452530   -0.14168182026904
H          -8.22065146705643   -6.79059879246613    1.14264097050826
H         -11.50533718232156   -9.90209705842860    3.18174299138453
H          -8.62102778468227  -13.45190774577512    0.08829094342463
H          -8.41125773786719  -16.88984550911659   -1.06737277682410
H          -6.76384250076379  -14.70568830762935    0.29612706316902
H          -6.16666956611056  -16.03479289448962   -0.80710585601112
H         -10.46720809281198  -17.93009469094239   -0.79603249715248
H         -11.36796461438803  -18.18857604269490    0.69784738201162
H          -9.60126946234663  -18.14281286065151    0.72557718986031
H         -12.46677495069771  -16.28228057185683    1.37876648943992
H         -14.12417317010812  -15.13796046640453    2.29879683475900
H         -14.79636442637654  -12.28218094008859    3.18328824353956
H         -15.83208737804349  -13.78218642587360    3.38187617645633
