112
 SCF done       -210.017148730679          0.000351105069
C           3.95176415786346   -5.61756820181268   10.17374043749362
S           3.48644379559009   -6.81253288515210    9.05227955943308
C           2.69921872985635   -7.77025266989206   10.27268706990146
C           2.81312478856314   -7.14792498966244   11.52124564742931
C           3.53910607183098   -5.91494326061544   11.45700587987826
C           3.75370407770682   -5.17655178891972   12.63757311082774
C           3.30599942914819   -5.64205642842013   13.84922905542370
C           3.62779844686131   -4.83765974439579   15.03243494426586
C           4.06043499528534   -5.29461583326259   16.19855340261270
C           2.55254806556519   -6.85615163178231   13.91083471191661
C           1.97031211124531   -7.34674267221871   15.20202984818740
C           2.31901471686485   -7.57429141504892   12.76747145371270
C           2.06887593941316   -8.99993195790698    9.96184401008412
C           2.10885443352645   -9.57206838175690    8.73677652910756
C           1.52764564604296  -10.82975494055843    8.37166832644597
C           1.53861451108819  -11.35412200599506    7.02451411390309
C           1.91918561525249  -10.69052792339713    5.84917924563759
O           2.29681508294831   -9.37365171641388    5.79729313374026
C           1.23816415236264   -8.41830220347113    5.86874773830573
C           0.46813937131480   -8.29460048043467    4.56130978499895
C           1.94743641055042  -11.44625621238186    4.68736747427467
C           1.60415908265551  -12.81126261419843    4.65055967701293
C           1.09514168965508  -13.45129544632928    5.80012541884455
C           1.08004533397937  -12.69842532111470    6.96789528323882
S           0.54319835232436  -13.22299733303359    8.55317010376473
C           0.99785111145550  -11.73217129138184    9.25283260091744
O           0.66792568103123  -14.71641362486431    5.59116353480353
C           0.05368480432949  -15.46326531604007    6.62916476911611
C          -0.34042796875609  -16.81388359720442    6.05338975863246
C           1.72097669732302  -13.35765820591945    3.34963068525649
C           2.06806343469844  -12.43593433742828    2.40338620407484
S           2.37184824509361  -10.85413025844559    3.11172604724359
C           2.10110832790218  -12.55942502038740    0.97734716904817
C           1.35158892904837  -13.40916120023187    0.15686916457233
C           1.70765584927983  -13.22264805494186   -1.20832548557624
C           2.68990440399159  -12.22964825448610   -1.38620435175904
S           3.20539197042374  -11.53585537082105    0.10018683349045
C           2.91068515700952  -12.10285006174307   -2.76097928890040
C           2.06039325501249  -12.99847319738968   -3.37405760427723
N           1.33027164906702  -13.68380292275564   -2.44831273190442
C           0.30031470047381  -14.63461031551707   -2.78516210373615
C          -1.09094838131523  -14.11881625718396   -2.43148535733910
C           2.13231296023753  -13.08775173011247   -4.85745698558902
C           2.95198247289679  -11.86558161259239   -5.29862202109614
S           3.90485976552106  -11.18886338037063   -3.86437369349285
C           0.40291073867866  -14.36268261475275    0.67084770996088
S           0.47366982925778  -16.01331523514850    0.15955680943427
C          -0.76282392201751  -16.53971778251124    1.26727094701036
C          -1.18436859787580  -15.45349475089206    2.04962118713586
C          -0.54997639155684  -14.21712129006139    1.68090682711167
C          -0.87314483897282  -13.03590893763060    2.37527989658994
C          -1.69071323423389  -13.09900250739606    3.47264868208489
N          -1.68483790824668  -11.97275230667492    4.36920236141266
O          -1.62040532414319  -12.23124174278850    5.55231147654136
O          -1.62799376321564  -10.86439452403300    3.88865244568153
C          -2.34477340445073  -14.31068255766554    3.81692966991206
N          -3.35562577322978  -14.34097259015599    4.84002953758099
O          -3.53527882612267  -15.39966966436969    5.40442926554534
O          -3.98941470620743  -13.32546385568664    5.02529161762223
C          -2.12339416164112  -15.45455374940605    3.09200066254456
C          -1.14656901485991  -17.89807260373512    1.32281665621027
S          -1.81393180690090  -18.61116219333310    2.76259214439629
C          -1.92459205441020  -20.16223474416766    2.05801001565289
C          -1.47834345927858  -20.17406886762037    0.75871286680624
C          -1.02604784821160  -18.87759151173245    0.31914268130591
C          -0.57444631848916  -18.73068314542455   -0.99471818675412
C          -0.55372704743240  -19.80800560033748   -1.85008831424447
N           0.06416694378529  -19.62742703934139   -3.13065488148173
O           0.10845349729998  -18.49343599142550   -3.57014234133634
O           0.55465791646511  -20.60231024557931   -3.65850941873058
C          -1.01399731675776  -21.08234476205883   -1.41877530924611
N          -1.18394548926824  -22.18088648015771   -2.35481825767888
O          -0.82887099959446  -23.27399305555375   -1.98910988796001
O          -1.75321932452681  -21.91837174399810   -3.38696512528744
C          -1.45591951998299  -21.26655613751661   -0.14125448325196
H           4.50826904961881   -4.76315296310233    9.84353229464016
H           4.30350653257556   -4.24817631590433   12.58034136820673
H           3.55652579277174   -3.76715886514770   14.87840975855663
H           4.20649865815182   -6.34300274713343   16.39127589510102
H           4.31440217454126   -4.62465828675060   17.00262897416835
H           1.73282204945311   -6.51911326482411   15.86554166731561
H           2.67450346873303   -8.00238739793046   15.71456587323208
H           1.06525079932005   -7.91988832190176   15.01151511542650
H           1.74038900930357   -8.48491363019944   12.82216484619101
H           1.53905756679685   -9.47613452902550   10.77457085971706
H           2.66420244352924   -9.06835751188979    7.95946821129469
H           1.74232464245868   -7.47681024056632    6.10374520153059
H           0.55498808659000   -8.67155137801819    6.68890486205407
H          -0.10784388477283   -9.19351168922807    4.35549358449063
H           1.15684065310167   -8.12094280111839    3.73797593409597
H          -0.22065194969102   -7.45722107612400    4.62969286925454
H           0.87565184685818  -11.61484643306086   10.31133963810374
H          -0.83310833203868  -14.93474406159747    6.99741349689819
H           0.75771795573358  -15.60107090414250    7.45848515359253
H          -1.09932019990611  -16.69220909563009    5.28678935537508
H          -0.74243338840677  -17.43819151881321    6.84486838478542
H           0.52800433231505  -17.30043204479035    5.61724945445213
H           1.55961929888913  -14.40069450053259    3.15389980144120
H           0.49646200936442  -15.58196929600311   -2.27507388280456
H           0.36406041033123  -14.82382943612822   -3.85766017316273
H          -1.17620704827669  -13.92409232023118   -1.36487573865614
H          -1.83538614969864  -14.85800898491912   -2.71291261363252
H          -1.29771972415923  -13.19345690980054   -2.96387468622160
H           1.14712134802678  -13.06619516562188   -5.32798493405019
H           2.63007992461998  -14.01632366947534   -5.15574272190437
H           2.30540352016231  -11.05824076940907   -5.64158225329324
H           3.66920534573992  -12.10171011389179   -6.08057122527134
H          -0.43180916189944  -12.09301117370559    2.09523835013614
H          -2.68783023097771  -16.34037268777071    3.33788376581780
H          -2.31412959012214  -20.97991637792282    2.62967803029948
H          -0.22348506433667  -17.78526883375445   -1.37392616867941
H          -1.81960814608364  -22.23247439427762    0.17330129572905
