100
 SCF done       -150.323006416423          0.000589935742
C          -0.96630981151920    0.32759250790039   -0.86546175517918
S          -1.21132507393718   -1.21829573910755   -0.19070809645949
C          -0.94967470284714   -2.01650446698592   -1.71217845464365
C          -0.67925410689203   -1.07641967587561   -2.70803004789662
C          -0.68927701703038    0.26950843278448   -2.21473116134920
C          -0.42129805370909    1.33726878598471   -3.09772877624295
C          -0.14750451574571    1.09563246507238   -4.41809725974517
C           0.14818166363169    2.20603307143164   -5.32339122691385
C          -0.40558696074343    3.40824872669114   -5.24606078274846
C          -0.13343893547676   -0.25034942389328   -4.91188556217137
C           0.15432928050681   -0.50791788963806   -6.36003380962041
C          -0.39795723490382   -1.29480980247562   -4.07288475575708
C          -1.00432200332880   -3.43075915622144   -1.83883872281211
C          -1.17243344471231   -4.28565207325827   -0.81140826043158
C          -1.18837226735114   -5.72619148202651   -0.90314865012392
C          -1.02627606050460   -6.49409374203778    0.24983579493847
C          -0.97948077159167   -7.88777643785811    0.18159759911801
C          -1.14816205474980   -8.45590099000669   -1.08979104299239
N          -1.33416917170459   -7.74757853555154   -2.18603894448089
C          -1.34740831098123   -6.43147008360576   -2.10492935561812
C          -0.73701569940742   -8.64814140654146    1.38173933503909
C          -0.42956355455502   -9.96067558971576    1.44961825523344
C          -0.11216302515813  -10.64256801466277    2.65124037609859
S          -0.15808880313537   -9.85070276641321    4.19089615706659
C           0.47270184565864  -11.22896875981818    5.03274034930869
C           0.65718709500378  -12.29803782816544    4.15240577404990
C           0.32666835883208  -11.96568830586356    2.80132259155940
C           0.46862408899242  -12.94142773532369    1.80008232488649
C           0.89230858921835  -14.21128286272699    2.10828804970093
C           1.04872388305271  -15.21082095357217    1.05290821841228
C           0.28421434164241  -15.29542345007052   -0.02755541571510
C           1.17480250203941  -14.55739386164039    3.46600071915887
C           1.57381134466086  -15.96018687249121    3.81168819080651
C           1.05168448823925  -13.61908263543435    4.45155851264693
C           0.75775744802074  -11.08959155332535    6.42285447557294
C           1.72526155123119  -11.74090249202968    7.09561904481458
C           2.02716237738311  -11.52440095807676    8.49442555465022
C           3.31745990349113  -11.74699895421857    8.97332778372894
C           3.62809369914007  -11.48839101690453   10.30879755925075
C           2.57118093784325  -11.04990930500523   11.12125579781796
N           1.33848460322840  -10.86717546341390   10.69315703986816
C           1.07040710695002  -11.08888949685206    9.42121941769992
C           4.94917397407108  -11.62231826127716   10.87663396876623
C           6.08782423025975  -11.76033809315914   10.16664363539180
C           7.41258906128022  -11.83150800625595   10.68012169970662
S           8.70439950768034  -11.43371523967019    9.59226160411233
C           9.91861539310140  -11.58084015767145   10.81190029031167
C           9.34222058501023  -11.96070344897529   12.02594868219337
C           7.92141377376046  -12.12148810271114   11.95266685222895
C           7.23622368261083  -12.59283031932923   13.08744195521956
C           7.89823481233534  -12.83065956988952   14.26746157808583
C           7.16617973612574  -13.33753315929841   15.42677546822073
C           5.91020906943647  -13.02797459734795   15.72082708276015
C           9.30731710145361  -12.60679013145590   14.35532117356662
C          10.02197909494448  -12.82558735838107   15.65429835586701
C           9.99889526966198  -12.19480049294401   13.25266370229091
C          11.29830162539360  -11.32781866871671   10.53512482127225
C          11.79081800530221  -10.97784664619877    9.34602235708068
H          -1.03715177561010    1.19734036201711   -0.24316252090158
H          -0.41012588221457    2.34457300440181   -2.70985593736718
H           0.86912505791843    2.00415159814958   -6.10414595348750
H          -1.15326738214240    3.64715757469088   -4.50826277303260
H          -0.14311551146155    4.19693833998294   -5.93030700492836
H          -0.49562165584720    0.09250280135035   -6.99480634535163
H           0.00154954881266   -1.55769896624714   -6.59823949919632
H           1.18754623882679   -0.25285947087434   -6.59747101122428
H          -0.39014499758482   -2.30518308911594   -4.45503391515484
H          -0.87323064364784   -3.81053012512786   -2.84232335661294
H          -1.26233235778108   -3.87968305822946    0.18962262571253
H          -0.90637006861425   -6.00238046787265    1.20644919559990
H          -1.14694265586922   -9.52785634403851   -1.23125994396905
H          -1.51015673653565   -5.91509062755756   -3.04095231029250
H          -0.75973543541855   -8.07935495527836    2.30447932862245
H          -0.37250540612768  -10.55244308464895    0.54734365050344
H           0.25316645418507  -12.68604471982287    0.77424911216712
H           1.84977551992699  -15.92464102328772    1.19166445855142
H          -0.54891245946961  -14.63293264233476   -0.19365156981775
H           0.45174332198196  -16.04603169954890   -0.78091699483466
H           2.55854918757627  -16.19125677576899    3.40426164621432
H           0.86285431578724  -16.67477426691278    3.39954631671728
H           1.61357486306240  -16.09022070190017    4.89051273342175
H           1.22697968946190  -13.89396694752655    5.48028393637861
H           0.19192877380294  -10.31964089547801    6.93274496507801
H           2.39050830713908  -12.41008861772015    6.56747634292086
H           4.07536839876585  -12.10929116739640    8.29337650940152
H           2.73853199748390  -10.83357877047748   12.16903481573162
H           0.03999209782642  -10.93891339414283    9.12913185355098
H           4.99563647430371  -11.52619422664266   11.95116635304272
H           6.03506128084210  -11.74610808412251    9.08504990658402
H           6.18583105109935  -12.82228503125793   13.01786147536784
H           7.71274137171278  -14.00507169625835   16.07936345645872
H           5.33574875174748  -12.33741980914636   15.12598851694821
H           5.41337852622607  -13.43869881976890   16.58299370597904
H          10.03706837853508  -13.88508657627515   15.91145557564088
H           9.52466839499895  -12.28965998759552   16.46122161929930
H          11.05022699817410  -12.47869119846064   15.58663415410334
H          11.06717141329229  -12.04802092405089   13.31389549006800
H          11.96532728675428  -11.43775768571393   11.37981010379350
H          11.15319949319261  -10.85791546637697    8.48582485266881
H          12.84114132289164  -10.79959431976538    9.20095636822620
