99
 SCF done       -164.027318572024          0.000589943481
C          -8.30763211781601   -3.91304863792288   -0.53014082107725
S          -7.14919210502737   -3.49954652456450    0.64185844648973
C          -5.96076798301977   -4.59727174172732   -0.01057897743715
C          -6.49943799191877   -5.28823685507900   -1.10647949692356
C          -7.84400448693318   -4.88276608226220   -1.39831620314930
C          -8.54516097358333   -5.47705644949782   -2.46695748592279
C          -7.96066131818568   -6.46148380405816   -3.22112522970098
C          -8.69255794724444   -7.07409454578501   -4.33000988541663
C         -10.00177642094932   -7.28472361673764   -4.33903214043065
C          -6.63102021499523   -6.89100981830261   -2.91504637587525
C          -6.00655491221269   -7.99763098264827   -3.70960685811707
C          -5.93513099999486   -6.31813209842906   -1.88491286290627
C          -4.70769579516248   -4.62745892321366    0.64440663259856
C          -3.55229582640655   -5.17459954214588    0.18575955124458
C          -2.30726471178522   -5.21937901276316    0.87954454119898
C          -2.10968721720086   -4.86943435110323    2.24027334501243
C          -0.79997136825183   -4.89621655058958    2.82554642319452
N          -0.62054184577619   -4.48616715440181    4.10439268462026
C          -1.66197608364721   -4.12051943218815    4.79207528710834
C          -2.95991812517925   -4.17110373534717    4.24429787104531
N          -3.16610008676006   -4.52594012380560    3.00720565876577
C           0.32692813533016   -5.30488225865541    2.09017960098282
C           0.13489083968830   -5.69705033654374    0.75503684002063
C          -1.16472019558289   -5.65890539313032    0.15747751603091
N          -1.32233161988351   -6.04370279877709   -1.12819799690959
C          -0.27154122491583   -6.43741263386490   -1.79144224240417
C           1.00647420638520   -6.48969835900115   -1.19547638705218
N           1.19948727736725   -6.13782128765038    0.04192555420993
C           1.65681952782490   -5.28212312293283    2.69261871011738
C           1.88036992172960   -5.76001016104721    3.97867170198459
C           3.15158366389471   -5.66455283617415    4.54846354058810
C           4.15447378081172   -5.09172784417315    3.75451302436612
N           3.95557276276893   -4.64395556851525    2.53111959913746
C           2.74689198631091   -4.72624644327278    2.01265843628135
C           3.46173489142859   -6.10813189531134    5.88954026841162
C           2.70303115865135   -6.96004042782156    6.60539366668057
C           2.94388333814819   -7.42398794356584    7.94095331389242
C           3.82455088232364   -6.81999754534227    8.86865602568574
C           4.00611176371860   -7.35190900294702   10.18918609806618
N           4.70540547021363   -6.65132959978439   11.10214180994077
C           5.27482396628302   -5.53550398138974   10.73979801013308
C           5.19826282768231   -5.07352319561576    9.41231140846531
N           4.47622153598408   -5.68844020679986    8.51966684566737
C           3.38536777628888   -8.56537238446738   10.58854756445880
C           2.42929072918134   -9.10761771679348    9.69065642154426
C           2.20346377137543   -8.54096727960848    8.39977587117005
N           1.26492030837045   -9.08223268043577    7.59182487535057
C           0.60188961082518  -10.12260108180510    8.01219746611456
C           0.84747752354263  -10.70009504481083    9.27289477063038
N           1.73728042394214  -10.19247797974305   10.08004228269150
C           3.60312245383631   -9.19636506670231   11.84208284879179
S           2.32815680662866  -10.14737102295654   12.52810217416890
C           3.17107577253589  -10.37555559348494   14.02069513234623
C           4.46497110566467   -9.84988197759595   13.94600690397922
C           4.71602879529622   -9.18301916847479   12.70559012049872
C           6.00910724531192   -8.71045920029963   12.44502823079557
C           7.01029626320861   -8.81056585758896   13.38560032168282
C           8.34384989162446   -8.29597239329082   13.08544500514798
C           8.58728791773765   -7.25814956660384   12.29468920819948
C           6.75041428244014   -9.44949020599376   14.63367967689152
C           7.83351900786533   -9.56943887783892   15.66337891935581
C           5.50981413721924   -9.96858221260987   14.88417590448205
C           2.48427874679787  -11.05560838292499   15.08034967811711
C           2.70983122434891  -10.93139849874182   16.38891936506768
H          -9.26908504826287   -3.43889977135356   -0.53199120424171
H          -9.54513369816179   -5.13566051626362   -2.68776630390286
H          -8.10017299821740   -7.37196964386873   -5.18481135707007
H         -10.62647594676094   -7.03791562087436   -3.49655030516696
H         -10.49778682283644   -7.73025485104784   -5.18448994972337
H          -6.66726032328068   -8.86257557194992   -3.75060753365916
H          -5.06172709081001   -8.29972899901093   -3.26465956837547
H          -5.81250369582943   -7.67296744619238   -4.73251171408531
H          -4.94672474644905   -6.67951240357005   -1.65273101655263
H          -4.68222900881803   -4.13101089755328    1.60459595613838
H          -3.49945433309611   -5.57818969485103   -0.81387515501798
H          -1.48430480921659   -3.78692549037997    5.80595016872602
H          -3.83489533202203   -3.91799862683126    4.82857649807827
H          -0.42952127204624   -6.73877955097098   -2.81867331174006
H           1.87177897332590   -6.83926386900548   -1.74294367285582
H           1.06409247143438   -6.19270016556458    4.53430836529815
H           5.16697146500806   -5.00294403411448    4.12831384913737
H           2.62721391347276   -4.31414419328097    1.02085340086980
H           4.37894253584701   -5.72755226880592    6.31348324355677
H           1.83139820964728   -7.41288470786308    6.15257741625642
H           5.79407462384544   -4.98189318672837   11.51095208097979
H           5.71138011728364   -4.17704722182320    9.08978222230833
H          -0.14906871825957  -10.52292893588455    7.34398819678635
H           0.31255963150874  -11.57339186360424    9.61940248516117
H           6.23502262095248   -8.29598380300067   11.47767080745905
H           9.17278478911745   -8.80183400174460   13.56191117781277
H           7.79392371930756   -6.70010720662199   11.82638358752002
H           9.59048283230551   -6.91944141797544   12.09822413846565
H           8.26238535719647   -8.59333662497707   15.88520435025750
H           8.63459480327006  -10.21774063965803   15.30764228523813
H           7.43859948958842   -9.99305734487076   16.58363417001791
H           5.33242455648960  -10.50957003337534   15.80036100014634
H           1.66571653537048  -11.68255934815252   14.74669456031824
H           3.45473716846833  -10.26658249128800   16.78822316719070
H           2.11987987254620  -11.47630253931520   17.10535577461130
