97
 SCF done       -173.450180189334          0.000602872449
C          -7.15989382121147   -1.37022201854585   -3.95010444751562
C          -6.52453981705153   -0.53292354237742   -4.79250738202203
S          -6.34380064546875    1.07240503757972   -4.16747951498919
C          -7.17467219377689    0.62346051056644   -2.70155464697927
C          -7.54924655612450   -0.73852618483676   -2.73021722131112
C          -8.21583542679416   -1.28993544105250   -1.64062407296674
C          -8.50433648254835   -0.45701628310316   -0.58021159144059
C          -8.13552524355318    0.91109651722202   -0.54359249871819
C          -8.63360121743124    1.54567780537207    0.63423260365306
C          -9.30141438162618    0.70314640156875    1.44855737409971
S          -9.38289859627794   -0.91948175149375    0.85402692666753
C          -7.41900374999123    1.46762398580935   -1.61899022784346
C          -6.94274760770778    2.83471994782240   -1.66309774070786
C          -6.48504809132501    3.52843042502130   -0.61045539441178
C          -6.01236922731231    4.88949396907648   -0.65203951887295
C          -6.06160849896243    5.71305199434742   -1.73435685145851
S          -5.44132542111086    7.29126149624349   -1.44601303964688
C          -5.07966417902531    6.90195647621255    0.21659675850191
C          -5.44837892576946    5.56453867498956    0.49419260583748
C          -5.26777209102699    5.05080191037425    1.77320217535260
C          -4.73987039001228    5.88435160809650    2.73633919433068
C          -4.38754740971120    7.22811353538872    2.47888441637282
C          -3.86266578788942    7.85245783953596    3.64851354664520
C          -3.83183722003627    7.03092671934145    4.71939184629624
S          -4.42922746909049    5.44300932643592    4.39362101624950
C          -4.55564311616803    7.76974217754355    1.18379431339228
C          -4.23098165786065    9.15131871032322    0.95718845040965
C          -4.01484987176151    9.75437769404447   -0.23220389827394
C          -3.75005892377857   11.13673940569478   -0.39090224411722
S          -3.68299101597846   12.23454455593249    0.95062648862328
C          -3.38834425648328   13.60740561253920   -0.05595682679465
C          -3.32123032837370   13.23181516826970   -1.39563534386706
C          -3.53117961820554   11.82420503055860   -1.58990080110794
C          -3.50110873364586   11.28959321911668   -2.89011987596789
C          -3.24140000666837   12.11178559998220   -3.95912657002232
C          -3.21159658173402   11.58315117417670   -5.26858647385934
N          -3.19433526544397   11.13770362242233   -6.32479757428375
C          -2.98062185501425   13.50679063725830   -3.75964007778609
C          -2.67383947971879   14.32153215052404   -4.87268994232366
N          -2.42444442843034   15.00017440423846   -5.76224431721857
C          -3.02080141391379   14.05184712626426   -2.50147718406489
C          -3.31160488610248   14.93854783540991    0.48596780332538
C          -3.89578630646075   16.01879806996976   -0.10642373678919
S          -3.66769779437646   17.49913454257694    0.73929537466881
C          -2.74344289460274   16.68167518960073    1.97384656034093
C          -2.63535668086547   15.30080492168195    1.70665660063890
C          -1.89559335847450   14.49766676253471    2.56684741984890
C          -1.32236183192547   15.09793766825746    3.66908422322288
C          -1.43120011434928   16.48296268638219    3.94672521995794
C          -0.79248506150762   16.81374503758946    5.17928574907096
C          -0.21385891931071   15.75152402348388    5.77585253323291
S          -0.40049191589399   14.27307786744000    4.89644321435833
C          -2.13989150508061   17.31248127820795    3.06034857656087
C          -2.27279453152504   18.74798410109797    3.20292054349564
C          -1.31726582063615   19.57894059759411    3.64297617192363
C          -1.45917053256168   21.00976617390002    3.74830504410115
C          -2.64083317805735   21.68850149964513    3.74344276652352
S          -2.48450544469653   23.39576802854867    3.89449186787359
C          -0.74597418231521   23.25668670766209    3.98005070608144
C          -0.33838913664513   21.90790940976066    3.88601180643224
C           1.01870486011961   21.60895526859996    3.91427380571394
C           1.90572875632068   22.65573218192928    4.05764795210116
C           1.50033167565879   24.00967092305758    4.15479225042435
C           2.62128747132883   24.87170572692973    4.35184338993356
C           3.79688169436512   24.21250195658352    4.37260698726463
S           3.63921419313617   22.50178316709745    4.15952485734916
C           0.13506496841898   24.32778608912093    4.08979475108457
C          -0.39126834127411   25.68784486305027    4.12815454529013
C           0.14690943633514   26.74092388450466    3.52896464465178
H          -7.35948066548831   -2.40466087183244   -4.16508266410770
H          -6.13211168776091   -0.74596751093416   -5.76780564375156
H          -8.50739341961561   -2.32791329520181   -1.63444933831308
H          -8.52818377842905    2.59532387847177    0.83759377928648
H          -9.77283166134593    0.92953720131940    2.38511394538557
H          -6.90698397640125    3.26927830331861   -2.65392464030302
H          -6.43392048458559    3.04480039613832    0.35362994995296
H          -6.43030417998242    5.49239907433925   -2.71644849164360
H          -5.53159394925210    4.03460000299214    2.01693862778689
H          -3.51397174933187    8.86809675810893    3.69043019208048
H          -3.48490569433121    7.25577985670626    5.70909475678591
H          -4.15259568744303    9.76177638192207    1.84734044779554
H          -4.01947123165817    9.18135514134032   -1.14581389630153
H          -3.67761267982118   10.23752310921367   -3.05437082224696
H          -2.80211997793293   15.09881101915816   -2.35695377321289
H          -4.49727298436191   16.02487864961669   -0.99472236995435
H          -1.77277684923838   13.44208746756684    2.38701128225273
H          -0.79852470867289   17.79860340549948    5.60827650392282
H           0.32400234741654   15.73017773860156    6.70360318679077
H          -3.20676386407318   19.15481514844061    2.83583243948039
H          -0.34639275251782   19.18294174030571    3.90414126440338
H          -3.62905614636822   21.27782035206329    3.67358405916555
H           1.37654679492079   20.59534935091683    3.83148509758430
H           2.53623772686088   25.93234301486953    4.49875406533777
H           4.77939747161531   24.62173925930566    4.50582260199894
H          -1.33539198605761   25.78929346748853    4.65126388332235
H           1.04747286098996   26.67016909244653    2.94268728198906
H          -0.31521070211548   27.71173015713453    3.58209420796520
