100
 SCF done       -205.021273366841          0.000832762850
C           4.70265985949491    1.97462529258639   -0.45895381814100
S           5.74727170408400    0.75007562994740    0.10204010927797
C           4.56253950741523    0.17649938749318    1.24240614145210
C           3.42361570922624    0.95349961497333    1.18754841513520
C           3.50134469430658    1.97802426146800    0.20161598637568
C           2.47954109013547    2.90196326433339   -0.10682339808370
N           1.66939523262994    3.65647341804024   -0.39706321932999
C           2.26022311882092    0.82328884862772    2.11956631192624
F           2.64603090609569    0.45322912792001    3.35822592547381
F           1.59655167889567    1.97273672483374    2.27264348973695
F           1.36117450240232   -0.08981767980648    1.71849472675396
C           4.88350538315208   -0.96428929128604    2.04770838582737
C           3.99360773736966   -1.89078602465458    2.46316088741553
C           4.32140099675214   -3.01610017862670    3.27443893001707
C           3.74496923552470   -4.27455983726510    3.20910842877056
N           2.70223265975516   -4.69786901437853    2.36203751917582
O           2.25983899903584   -5.81808640795594    2.54155635615841
O           2.30959331970820   -3.93258973216866    1.49732024058087
C           4.41487549665959   -5.16169207178230    4.12365904556644
C           5.43047814689784   -4.48490032757185    4.71311760301359
C           5.40632106461336   -3.11666708776545    4.25819806744980
C           6.13412664751976   -2.07221817428999    4.79194084035561
C           5.68786857309592   -0.72077432458006    4.94963992335115
C           6.55603576427229   -0.06359341221257    5.76812599216554
C           7.63820354313715   -0.94035221110426    6.09845613440500
N           8.76922936825831   -0.52122714691607    6.82446324215654
O           8.69844658894035    0.55542159917223    7.38985600995930
O           9.75425289488548   -1.24069907355255    6.83345725214346
C           7.42179030068196   -2.18606821113982    5.51281515634411
C           8.29685185440745   -3.28625346619723    5.53339270608005
C           8.37091256328901   -4.25234675063333    4.56548694408635
C           9.21245894377277   -5.37317374942849    4.67864482182455
N           9.45599741479400   -6.26825872553927    3.66140483272804
C           8.96143122443510   -6.18063396417050    2.30819817230655
C           9.71176226845635   -5.12922819181874    1.49530936587087
C          10.33035721722066   -7.29088439268100    4.05441296811024
O          10.69489359693864   -8.18721658197322    3.31934580645802
C          10.61954625232592   -7.00172381706203    5.44541666957017
C           9.92182256751993   -5.82959923573162    5.79771368615270
C          10.16627511963407   -5.56568909957364    7.20206134933887
O           9.75502524568988   -4.71225242948707    7.95410808281332
N          11.04521017017414   -6.59775320848825    7.59744986076853
C          11.50388259527462   -6.69418050607380    8.96334075737895
C          10.69261826332882   -7.71059270281843    9.76290245641885
C          11.31159172990570   -7.46536947374404    6.57399173473257
C          12.14590309302469   -8.60538751220637    6.70403574319523
C          12.37789890718803   -9.45287965817907    5.67273724747423
C          13.20363517116377  -10.62999775516171    5.71941491592632
C          13.77029195798773  -11.12713504645615    6.89490190221659
C          14.55512860692919  -12.26536007275608    6.87911194680670
N          15.01487947882793  -12.75994821767033    8.15465335023738
O          15.04582733990932  -11.97244003895118    9.07502415146311
O          15.31245371625466  -13.93224715599309    8.23626866024162
C          14.83693525432749  -12.95701814238874    5.68667979780983
C          14.24741456219533  -12.45907563859117    4.51675882037680
C          13.44992820888944  -11.33912249126608    4.53097622844301
C          15.73751381109368  -14.08740958307341    5.64315939531978
C          15.56226704088125  -15.14507472509816    4.82999282977942
C          16.43835051218144  -16.27146877660077    4.74888533842251
S          15.87668807773157  -17.72218068661123    3.98584792436634
C          17.37416581374993  -18.54962773862262    4.26553532251077
C          18.25506922683471  -17.73520815449993    4.94255442347021
C          17.73872963003546  -16.43637231894277    5.20589709898203
C          18.49620294676073  -15.39687910517916    5.77926431343005
N          19.11989464146807  -14.52850222709904    6.19310499861952
C          19.60803721978978  -18.16782287443805    5.41629143359568
F          19.62113787916483  -19.44359036378530    5.83743515539453
F          20.54446806104100  -18.08071441261724    4.44871110800271
F          20.05775412597938  -17.43853590080132    6.44040233688423
C          17.50162494415651  -19.90078704007162    3.76636978259743
C          18.62041850295795  -20.46865538594167    3.32962594229664
H           5.00782005006337    2.63896651356602   -1.24310774622021
H           5.93732037472590   -1.09713179171223    2.25628990375284
H           2.97342651551826   -1.86322866582833    2.10302278505070
H           4.12184353335651   -6.18212150311996    4.28017691892762
H           6.07230803123951   -4.85003971997308    5.49044315602237
H           4.75206850253929   -0.34366714285568    4.58786462452326
H           6.47954129358272    0.94603083827905    6.12526256963967
H           9.00597777506916   -3.31314409621075    6.35384854345853
H           7.79195516057847   -4.14485211528731    3.65855243726142
H           7.88840851545652   -5.96834387846506    2.32621635247097
H           9.11656880620994   -7.16817408493618    1.86521449428574
H           9.61532632662089   -4.14414658474467    1.94645450227288
H           9.31369953554946   -5.09325931566697    0.48529444358471
H          10.76754299880877   -5.38310989954057    1.44344370704325
H          11.37242106578193   -5.69940831324801    9.39754502793078
H          12.56761796138070   -6.94480270580338    8.97493838690096
H           9.64692625128265   -7.41444863962806    9.78805951583475
H          11.06458932828679   -7.75401502495463   10.78237677230225
H          10.76109748476660   -8.70308706008425    9.32269527867992
H          12.60318975704795   -8.77070346493750    7.66799070603078
H          11.91888948727148   -9.24276086853004    4.71522471680545
H          13.59288528330505  -10.65571033604648    7.84933735976785
H          14.45407395264562  -12.95769945441306    3.58247474277895
H          13.01004217714561  -10.98015434812066    3.61251450411918
H          16.57781545427964  -14.07253253123112    6.32148166801518
H          14.66650990892161  -15.22000458883124    4.22628195463885
H          16.56444563508422  -20.43978054792054    3.70909812880343
H          19.56839331438210  -19.96163107968521    3.30920311929317
H          18.61337503633920  -21.47912923309045    2.96126035742364
