65
 SCF done       -118.977459321276          0.000815963582
C           0.39739810827081    2.14190481227870    0.14099754762801
S           0.14008737329042    2.88611979111347    1.66042831343155
C           1.50694539787298    2.06034698529554    2.33758552366746
C           1.83069311410324    2.33920423378011    3.71596555802953
O           1.19587071610644    3.08356830449464    4.42391117085459
C           2.12119450343305    1.24253746434440    1.39434110278656
C           1.46764575847078    1.30652222373065    0.13633680969609
C           3.26907616064015    0.39867893871306    1.55929129410056
S           4.10205569799496    0.05125274396937    3.06606935691631
C           5.16187848240842   -0.96815427460358    2.09679102391984
N           4.83257969749180   -0.96418501151661    0.83513632846825
N           3.80214584058604   -0.22492994266857    0.54540514322389
C           6.24237488824830   -1.69055147812359    2.66929962765840
C           7.07563368225341   -2.44569111829035    1.91263026095913
C           8.15677755186695   -3.18057495792504    2.46309921918131
N           9.03368260468594   -3.92791936857073    1.70998810934242
C           9.05695743460326   -4.03480994944577    0.27120771596541
C           9.66265450533527   -2.79426842578753   -0.38054383115367
C           9.99923402989701   -4.56634808807923    2.50434171717843
O          10.87294370867411   -5.28264953379737    2.05360470137509
C           9.66876072692831   -4.17378113232053    3.85601094204326
C           8.53492904665575   -3.32133646342941    3.79510340095671
C           8.19992076942931   -2.93061432007765    5.14526422881425
O           7.32746928259185   -2.21438968011799    5.59623374642361
N           9.16277930424230   -3.57374058415990    5.94204212708820
C           9.12467502384772   -3.47220520937114    7.38062979748146
C           8.49642349634675   -4.70820750140694    8.02051260556906
C          10.04054114065077   -4.32054835409397    5.18938380293944
C          11.11535686939860   -5.06484929910082    5.74717763448822
C          11.95145315088552   -5.80871805725998    4.98687180443642
C          13.05616846478432   -6.58476881777502    5.47424560783002
C          13.46864958509477   -6.66906362725727    6.81487556660446
N          14.48901563266149   -7.39691060453708    7.20493807113782
C          15.15135504664989   -8.07973014366312    6.26621089043384
N          14.85217363111231   -8.07533043708539    4.96402857180126
C          13.83226344908463   -7.34669250532255    4.58064289839935
C          16.27086762408854   -8.87901822435318    6.68335195680656
S          17.16020675976503   -9.79301170991567    5.52497402438474
C          18.21392023769410  -10.38321281994734    6.76723598838311
C          19.29992731227837  -11.29072364500764    6.46039956587004
O          20.07092900179780  -11.74048982161035    7.27255127146799
C          17.87045550726861   -9.88060648071818    8.00845750567478
C          16.77036470035956   -9.02887791600208    7.96163001905497
H          -0.26204128107114    2.36329273031950   -0.67497644885464
H           2.72841916051660    1.81608726764456    4.09428584094378
H           1.80537635358796    0.74091350291820   -0.71197721018208
H           6.37776266086420   -1.61403986650859    3.73905862068415
H           6.90442091875069   -2.49025927819924    0.84712827002628
H           8.04369870116350   -4.21240166328017   -0.09909630036380
H           9.67484989059520   -4.90821888037626    0.04425211429715
H           9.08399574653951   -1.90539791827572   -0.13969428455447
H           9.68001060049164   -2.91820158310845   -1.45966134978979
H          10.68206031789030   -2.65058658458378   -0.03060680692826
H           8.51276488361509   -2.59372865326109    7.60430386958261
H          10.13459916303241   -3.30267885699028    7.76479197111085
H           7.47686082318087   -4.83154014969478    7.66372371837808
H           8.47455687678238   -4.59317396891614    9.10068664814366
H           9.05888286146562   -5.60634664532573    7.77394923350291
H          11.24557629307124   -5.01465402750538    6.81821766209088
H          11.79467482612674   -5.84312431204170    3.91624581622149
H          12.96183069457942   -6.12972138632647    7.60496683920860
H          13.60521267001939   -7.35590428082432    3.52177242435023
H          19.36802293210141  -11.55379838174268    5.38744897457912
H          18.41502949896657  -10.13831785704090    8.89901626873636
H          16.33451038787577   -8.52794520126237    8.80637540748715
