182
 SCF done       -299.744509760117          0.000376219655
N          -8.31352760624972    2.12872349020644    3.52237618900573
C          -7.26330015689913    1.47226274178500    2.95992104668927
O          -6.13699955349738    1.89736726766903    2.85932025534027
C          -7.78233217445501    0.11161276679207    2.47721695380671
C          -9.22301768125324    0.14901360275282    2.88753656243960
C          -9.46642099746696    1.36090161304339    3.53559248144552
C         -10.70495684088138    1.66023326530412    4.06522425492626
C         -11.72042097391636    0.71594504346167    3.95415207319324
C         -11.47644155097052   -0.48735885381872    3.30087709134771
C         -10.23066285358625   -0.78140142633965    2.76496607332492
C         -13.07612892388779    0.98478384147971    4.53726943314431
C          -7.01827715380674   -1.02537619701659    3.16957751333220
C          -6.75451182525776   -0.73613276331844    4.65051111444063
O          -7.51332673213461   -0.27285336156847    5.45975855946466
N          -5.45088760688622   -1.11856733105297    4.89252351114875
C          -4.77297636938894   -1.44309224441148    3.71699257819745
C          -5.65721599820409   -1.35727981201067    2.64055352413572
C          -5.20545300584959   -1.62281944598807    1.36845949583493
C          -3.87065699493287   -1.96821806092293    1.19418399224295
C          -2.99407778933004   -2.06165205948593    2.26742963404353
C          -1.55599089320341   -2.42248409424053    2.05251902566988
C          -3.45173513937698   -1.79656099198689    3.55733700133324
N          -4.91740018533618   -1.33058025648276    6.13793340780943
C          -4.50050023773261   -0.36985659353329    7.02519806651438
O          -4.40604648561795    0.80900564328790    6.79384262785126
C          -4.19371906127877   -1.08625792710257    8.34077032137979
C          -4.38217230114784   -2.52852489440413    7.99404140735734
C          -4.85850453094358   -2.61450919250483    6.68775955153955
C          -5.15917972699067   -3.81963540615425    6.09294064643124
C          -4.97924921579886   -4.98233856023772    6.83971414726708
C          -4.50802149882523   -4.89776154725127    8.14412813738084
C          -4.21248883836446   -3.67622338505634    8.73487558128940
C          -5.31782944204127   -6.31186527055413    6.23770307447504
C          -5.21153691679379   -0.62424439860796    9.40773184194221
C          -6.60326962831028   -0.51372833746974    8.77230715429367
O          -7.20978887285533   -1.38380560490040    8.20272190656492
N          -7.02635269831194    0.77654186009788    8.97422700316661
C          -6.09775163987860    1.53247197142070    9.69802228082303
C          -4.97291115330134    0.74742340129882    9.95018478215028
C          -3.89620636991452    1.29436668062535   10.60907317050130
C          -3.97467133809972    2.61879721792509   11.02393298010317
C          -5.11282033674298    3.38675718971821   10.80847521493119
C          -5.19847440608603    4.79579906852082   11.29663644803578
C          -6.19890490853061    2.83671928135417   10.12704229439224
N          -8.10928891430108    1.36026809898627    8.36786705027721
C          -9.41221656146727    1.20459750867141    8.75389266169046
O          -9.81032380541081    0.49387811994542    9.64307604743366
C         -10.25027799598411    2.12080433824485    7.85804364435859
C          -9.21263662220981    2.87849317195358    7.08930950850462
C          -7.95907517105055    2.34475776229647    7.38774704292752
C          -6.80335272567559    2.81140863793319    6.80330347348138
C          -6.90164479699714    3.87108935040484    5.90333379097322
C          -8.14564843899960    4.44138037881577    5.64420820432748
C          -9.30795597929997    3.95136060093557    6.23305188540087
C          -5.67472203288926    4.35073972428881    5.19686894039258
C         -11.17298320237613    3.01564236385599    8.69141931943892
C         -10.41820985505339    3.66449687585279    9.85232379683286
O          -9.36436535899858    4.24771778647544    9.80833106685220
N         -11.19697725690013    3.49596874992704   10.97212175033408
C         -12.31035790166437    2.68823823170287   10.72311520216161
C         -12.32279816261272    2.34063392216414    9.37109134831666
C         -13.32076427514612    1.52888592737459    8.88451255400537
C         -14.29582460678619    1.07380405348322    9.76369282773147
C         -14.28756502906942    1.42594200555412   11.10635903868632
C         -15.34325301786601    0.92300405091455   12.04285024081357
C         -13.27877577441951    2.25363721952241   11.59899075899526
N         -10.95104715217215    4.08847270616316   12.18659512143636
C         -10.68507175899664    3.42251474744185   13.35730534475020
O         -10.58178253274252    2.22718599500067   13.47924030684200
C         -10.58892835272457    4.48231886878580   14.45730245462344
C         -10.71065326365250    5.76698613040213   13.69930576788573
C         -10.94575231483153    5.47569094951984   12.35534061900136
C         -11.13523848255000    6.46324446301268   11.41535851084433
C         -11.06863548007382    7.79189509407502   11.83350015278188
C         -10.82855201177014    8.08234331937561   13.16962632940219
C         -10.65175511706521    7.07777547489340   14.11311981176913
C         -11.25275079613319    8.88573523207988   10.82655939146434
C          -9.29303048778329    4.31772779280506   15.27087518360500
C          -8.14552514859871    3.89221075816411   14.34997239270852
O          -7.72807997196820    4.48102642320001   13.38429155185140
N          -7.68876427612424    2.68954533892102   14.81661066784445
C          -8.38449221807632    2.25854440126932   15.94914969179220
C          -9.35828865708327    3.20184166049755   16.26770731649463
C         -10.17714695546398    2.99375068595486   17.35570163441848
C         -10.00041716501405    1.84017983149103   18.10791819974918
C          -9.02687652277232    0.90051567061852   17.78522045620950
C          -8.86949188475545   -0.34234799617414   18.60628063220845
C          -8.20119385986758    1.10766466441385   16.68337710660501
N          -6.61706773478605    2.00233130531930   14.30932415274470
C          -5.32661493485773    2.24619827829844   14.70418963353370
O          -4.98092588178424    3.15486627344833   15.42038816971085
C          -4.46066138649983    1.14580180188661   14.09421138557293
C          -5.47017231912413    0.23427609232608   13.46828734229508
C          -6.73665346995605    0.80613986679666   13.59288466731240
C          -7.87400777057080    0.21103305920924   13.09929622852232
C          -7.74137685084075   -1.02940256702670   12.47381780259240
C          -6.48631607159587   -1.61813839996047   12.37721787537563
C          -5.34237328849947   -0.99317459399407   12.86070583347644
C          -8.95395000563603   -1.70291121241620   11.92083110977388
C          -3.58190171532322    0.49322928522571   15.17755783524603
C          -4.41825192306329    0.22784576971716   16.43167865369810
O          -5.41170962537739   -0.45692712400337   16.52005456348016
N          -3.84804372639300    0.92048557680495   17.45406491111505
C          -2.73232279405505    1.64014203306290   17.04681536960216
C          -2.50922580150959    1.40449798924146   15.68802817897477
C          -1.44654225779780    2.00627577756939   15.05430345559476
C          -0.61155070356660    2.83288994728529   15.79503553231059
C          -0.83034299539557    3.06673939738570   17.14666719666824
C           0.06881795400154    3.98567477426753   17.91701177977325
C          -1.90922739001669    2.45983159018418   17.78721799791322
H          -8.21181589780788    2.99600349681978    4.03558607518761
H          -7.65027135862235    0.02236660910402    1.39511012548647
H         -10.87812109887568    2.60120602117663    4.56198642641221
H         -12.27455088900386   -1.21026604782085    3.21767906646091
H         -10.06197961141091   -1.72427156755310    2.26506946082651
H         -13.10039651267085    1.94705653692126    5.04330406967525
H         -13.34115995361092    0.20469024272983    5.25000460082569
H         -13.83339743380851    0.98738539531298    3.75420696217930
H          -7.65442706691418   -1.92074514840889    3.13525808005437
H          -5.86820234193111   -1.56640517294480    0.51805055897223
H          -3.50543112935646   -2.17067403440591    0.19835574587217
H          -1.41281765655955   -2.89790660860531    1.08569555414312
H          -1.20571001898561   -3.09437429390149    2.83330956289610
H          -0.94076249977572   -1.52324123366132    2.08460760688856
H          -2.78489246153047   -1.86147723855993    4.40399157182927
H          -3.18497506488182   -0.84386136796656    8.68446932920248
H          -5.52779309185106   -3.86949815552624    5.07913625804276
H          -4.37361507621831   -5.80560384879986    8.71334937419193
H          -3.85268975867934   -3.63296818374552    9.75209338160565
H          -5.10428539934573   -6.32047957657055    5.17124086551157
H          -6.38059134768727   -6.51576269758462    6.36949804616974
H          -4.75860919258191   -7.11096583298500    6.71766359251731
H          -5.23885827752061   -1.37088762675122   10.20518345139664
H          -3.00662580865925    0.71076547635589   10.79909304791093
H          -3.12918807258922    3.06884219940551   11.52589153654533
H          -4.28015349410061    5.10018136363362   11.79255468019705
H          -6.02645139208179    4.88763761322970   11.99779120115741
H          -5.39671014255662    5.47184215889785   10.46658821820067
H          -7.08491692497007    3.42826530862246    9.95303081326164
H         -10.85618681851750    1.49487410130928    7.19351695197654
H          -5.84193611063698    2.37367009519282    7.01481873668193
H          -8.20929929912504    5.29199283761907    4.97908693463552
H         -10.25920459388719    4.41953296479830    6.02039164753000
H          -4.81114898557896    4.30313621074959    5.85475081474513
H          -5.79697233229964    5.36810147652821    4.83218923957852
H          -5.47632878915706    3.69731078531411    4.34515480038299
H         -11.53619477367126    3.82179042529996    8.04064238686634
H         -13.34830201621278    1.24450813301996    7.84359160678219
H         -15.07786670483771    0.42763948594728    9.39352552658902
H         -16.08385177852605    0.32874737785773   11.51480085132910
H         -15.84687022993836    1.75503832383201   12.53283832728816
H         -14.89034872158671    0.30611912806736   12.81747505897453
H         -13.25707313516043    2.52480904421597   12.64318929403169
H         -11.43646553412683    4.34867953126550   15.14037237476036
H         -11.31439858727704    6.22725887807950   10.37776648426568
H         -10.77564565929316    9.11413652576949   13.48351702224614
H         -10.47157005315397    7.32730606278845   15.14808378379798
H         -12.21986976516282    8.79156710036449   10.33422293953555
H         -10.48149691532264    8.82071535243517   10.06057508467267
H         -11.19472242852656    9.86371043028946   11.29634320383316
H          -9.04649441464868    5.27655177081343   15.73698633100524
H         -10.93771970675870    3.71187817687044   17.62650419850971
H         -10.63390823944802    1.66639215166755   18.96556292725910
H          -8.91809557761791   -0.11439221939508   19.66948124887367
H          -7.92186065448213   -0.82564178583599   18.38463903689760
H          -9.67226220583731   -1.04329282461609   18.37760920943351
H          -7.44045100783587    0.38721558255188   16.42593672283830
H          -3.80992825206113    1.59213267432009   13.33621671611885
H          -8.84370152605780    0.67493869967550   13.19667649995862
H          -6.40419517582149   -2.59451459115890   11.91975045705701
H          -4.37693983554718   -1.47061778776922   12.77131772082189
H          -9.35488450036627   -1.11173007318629   11.09857993269315
H          -9.72919274163179   -1.77279317949180   12.68159438435995
H          -8.72063998521588   -2.69900281443407   11.55361873735902
H          -3.18613125860175   -0.44802545848485   14.78553633130683
H          -4.25239917864620    0.97586315459952   18.37552552738310
H          -1.25944152200218    1.84182819034946   14.00339550654629
H           0.22599585670130    3.31033852743986   15.30806170290458
H           1.03251977379472    4.09143859370913   17.42540034997839
H           0.22633796018374    3.61620342534510   18.92802403051310
H          -0.38653377220882    4.97363630693355   17.98839630198379
H          -2.09499062181856    2.63757147527841   18.83589490478986
