90
 SCF done       -161.208659164220          0.000726799303
C          -1.79697986504641    0.30831025383057    4.56826939402224
C          -1.07934854543164   -0.87007216487376    4.49098457023280
C          -0.15877415558405   -1.04658369762570    3.45185768455775
C          -0.03948963780840    0.00379045765162    2.52703310771328
N          -0.70773031670595    1.13046218270058    2.61878838925207
C          -1.55799471496132    1.29261460279896    3.61851434617792
C           0.61397313817759   -2.25512379072929    3.30306809189506
C           1.80919461938446   -2.40148161649702    2.64766227403265
C           2.24236715665814   -3.75667220792588    2.76002450424216
C           1.18643339358438   -4.46441800821683    3.51145234075737
C           0.22453510086643   -3.55927205488551    3.82636760363298
C           1.10947933865267   -5.83900775208708    3.76682475657218
N           0.97822735760965   -6.96347923865753    3.96002363207400
C           3.41049741432387   -4.30917591660648    2.28903702735974
C           3.90649015994874   -5.61756843284862    2.53856316875442
C           5.08778343588944   -5.80064656509099    1.83970509255228
C           5.36886776962669   -4.56778735232900    1.12007699005765
C           4.39248221630675   -3.66464486376719    1.40265285864637
C           4.33430943221787   -2.36352420181550    0.89029744587836
N           4.31309643197097   -1.30289288709491    0.45025823378056
C           5.83830031420042   -7.00280000515842    1.88925670119446
N           6.79156967908994   -7.43873273363890    1.00803847684955
C           7.21232447167895   -6.83698865611663   -0.23633424776529
C           6.09547665020532   -6.81202221982629   -1.27464811865811
C           7.28483072315042   -8.71645548049075    1.36015941374527
O           8.08179229809295   -9.33120027833887    0.68798947132009
C           6.60652489220131   -9.03435033360370    2.59838771879099
C           5.71393009036263   -7.98825398460846    2.88381057343765
C           5.04926518283528   -8.29585607931703    4.14015560642964
O           4.24567435200695   -7.68676983500423    4.80826187369731
N           5.57701033323508   -9.54800100397545    4.50864633083629
C           5.10629032906234  -10.23228464317890    5.69000863052625
C           4.05618464577083  -11.28679073678065    5.34996659658102
C           6.51246263221209  -10.00177140532104    3.61398914365258
C           7.20980461416921  -11.21561190404984    3.74066983626913
C           8.26245055828218  -11.55352463391023    2.93203612683388
C           8.95029705339450  -12.77921153514031    2.98335262542035
C          10.29614533801650  -12.98907073845471    2.67523554388237
N          11.23483732248202  -12.03298614485455    2.24649474689336
O          12.32045598972141  -12.44798359496991    1.87793724997836
O          10.92573441317526  -10.85377952649008    2.28238551229054
C          10.64476354783984  -14.34252633968281    2.96514730032461
C           9.55337851489576  -14.97605555359526    3.48414466517875
C           8.44343068033718  -14.07429637486666    3.47497367258725
C           7.12132595060831  -14.40848432472028    3.69803457950692
C           5.97579978274416  -13.82113907876352    3.06519907445915
C           4.88528022042143  -14.56053131576120    3.38186778590656
C           5.27535389151298  -15.62820075557883    4.27168600630060
N           4.28683562258777  -16.46066096558237    4.82461233989286
O           3.13530091263818  -16.06543358017668    4.74864507577821
O           4.60334188866499  -17.52111149914844    5.33986824304824
C           6.64625137506603  -15.56184659687957    4.49034189552698
C           7.52046124375881  -16.21900107936986    5.40388551507453
C           7.39157728754107  -17.46093588222640    5.92431855083928
C           8.32753175767431  -18.06514966741054    6.83907265834384
C           9.63509063481154  -17.61355613109905    7.05577059100936
C          10.43709134074261  -18.26666071173085    7.97165261494035
C           9.92465676318140  -19.37669062412226    8.63046140789964
N           8.68941843656372  -19.80974400194386    8.44495303210766
C           7.91688990614129  -19.18085853326341    7.58935020724604
H          -2.50981990252726    0.47206472204755    5.36121682502651
H          -1.20579890180052   -1.63517531906742    5.24270869068348
H           0.61194210448794   -0.08984467253543    1.66891183047705
H          -2.06258723439791    2.24828895519697    3.65599938000757
H           2.37684032931958   -1.62337381373604    2.17719403966945
H          -0.69121196259505   -3.76772527163953    4.34780318106930
H           3.43889194278012   -6.33618011972464    3.18175873452800
H           6.22299686852577   -4.37332181470748    0.50109799086405
H           8.03431774176911   -7.46347725789153   -0.59601472908626
H           7.60567038237673   -5.83474076285866   -0.05064761205802
H           5.75147158094497   -7.82360714873124   -1.47639045486038
H           6.46888368192583   -6.38246846951381   -2.19996850260740
H           5.24905082553565   -6.21985481690515   -0.93334720227734
H           4.65870753105404   -9.46391561554049    6.32633146924327
H           5.95564732851877  -10.67641383988388    6.21585790984740
H           3.19878468073682  -10.81502515067155    4.87708674261435
H           3.72116531044900  -11.77806551146879    6.25883854367995
H           4.45703304252417  -12.03945469187945    4.67424140828226
H           6.91984386494177  -11.88266573158629    4.54025254338438
H           8.65676096341769  -10.81206534563891    2.24500081576793
H          11.62099633190234  -14.75550634459411    2.79385792092301
H           9.48902577432405  -16.01963592079849    3.72515835024702
H           6.01660964851429  -13.01051442246546    2.36454074821012
H           3.87615636091139  -14.42338785107928    3.04187494671274
H           8.39202194084452  -15.63414092307347    5.67114417398568
H           6.53219625840928  -18.06277344049348    5.67098265038842
H          10.02969608342804  -16.78019514558262    6.49255459601715
H          11.44984691887192  -17.94193732696618    8.15246914097962
H          10.52500484636005  -19.94792454957334    9.32512257351598
H           6.90745428774879  -19.55838065538977    7.49233675438126
