78
 SCF done       -133.257026551419          0.000851835943
C          -2.07265451002978   -2.61047091355597   -3.89124904586699
C          -1.21355745153736   -3.02171210193580   -2.89015098498511
C          -0.28882671618222   -4.03661545659431   -3.15896060643222
C          -0.29955485845584   -4.57214755812976   -4.45387167280211
N          -1.11583439617764   -4.17866079250688   -5.40646549932897
C          -1.98557608855611   -3.21963408525477   -5.13563268513496
C           0.63423195930456   -4.52508498709825   -2.16027601959260
S           1.82188642830671   -5.73357222268118   -2.55172883902423
C           2.43766598605909   -5.75535378851349   -0.92838802056175
C           1.73165887949645   -4.84825010196961   -0.13362656028211
C           0.72323392066962   -4.16396220720809   -0.83820748623657
C           1.95556646305731   -4.61298544976578    1.23157091618317
N           2.10125894616157   -4.38536814492494    2.34801149075886
C           3.49624190969667   -6.63928722019384   -0.61135593097256
C           4.06673852260897   -6.76506541772676    0.61768014512235
C           5.09819619036866   -7.69357688281596    0.88527004695218
N           5.66494658102330   -7.86120336796878    2.12621561977805
C           5.30233986016562   -7.16991459998243    3.34089145142772
C           4.02694663119198   -7.73505241477051    3.96027109077662
C           6.64661467665313   -8.86630196448526    2.12552357355092
O           7.27957782073525   -9.18668203882856    3.11234710711372
C           6.68012870408726   -9.33448814190823    0.75637100679547
C           5.72658321078949   -8.59544879329563    0.02131833452425
C           5.75860511740243   -9.06169979339346   -1.34866520341983
O           5.12520181886877   -8.73263260268229   -2.33329758572809
N           6.73366998452148  -10.06823872330999   -1.35033338176308
C           7.09694130004642  -10.75839748089436   -2.56544238864961
C           8.40823670897428  -10.23636567207922   -3.14676741130063
C           7.29482639750520  -10.25051481322918   -0.10544115282308
C           8.27103938460321  -11.22650870253807    0.17596441011673
C           8.81270571984803  -11.40125337882655    1.41691564412701
C           9.76573082359575  -12.39885911883918    1.72510451103536
C          10.33213284783563  -13.35039550525208    0.89810759160474
C          11.22380700951195  -14.16077145743212    1.65101609445121
C          11.18042707149554  -13.64031585324665    3.03283478863523
C          10.31420272570836  -12.59554191415767    3.06069806534773
C          11.89135060750450  -14.12987898874794    4.13364502769876
N          12.46106308052382  -14.51170609177264    5.05585126113683
C          11.96781730259288  -15.22506763460357    1.19620595116226
C          12.85058327096180  -16.06054169283487    1.94675576030023
C          13.38021294022267  -17.01896816127216    1.12180594225270
C          12.84185214911784  -16.80951383048363   -0.21119336721186
C          11.99189619805955  -15.74671004779186   -0.18121064863685
C          11.27739289177620  -15.25819031153931   -1.27779217326218
N          10.70246319882275  -14.87386080084333   -2.19659250944749
C          14.31254106406920  -18.06264484911215    1.48136695547620
C          14.45459234835644  -18.49435534101642    2.80541720733593
C          15.36647519373169  -19.48913659256816    3.09870037602270
C          16.10199474361007  -20.04163527334504    2.05801044154035
N          15.99153703794381  -19.63496407597830    0.80476451588196
C          15.13382698928785  -18.67630015067310    0.52568268879541
H          -2.79557481382883   -1.83045192200410   -3.71040209545889
H          -1.25701726311668   -2.56083500190104   -1.91511419188592
H           0.39102929803142   -5.36184416655903   -4.72421919829335
H          -2.63484467193056   -2.93138527299142   -5.95094126195586
H           0.08867037930361   -3.43607486764230   -0.36504815110336
H           3.85322066800818   -7.25886023357167   -1.42460531279701
H           3.72549564570474   -6.14832662935353    1.43458777894899
H           5.19097047472061   -6.10197500247449    3.13589231668928
H           6.13921282529498   -7.31288990307421    4.03015305354937
H           3.18249009270853   -7.62690715712006    3.28351723213792
H           3.80257232045979   -7.20347982142125    4.88035002311298
H           4.15885926455854   -8.78997174943999    4.18866595088915
H           6.28236411921420  -10.57363197621165   -3.27124024012188
H           7.15860714032280  -11.83299331792666   -2.37299047651477
H           8.31774607107739   -9.17806170074946   -3.37955746822067
H           8.64360308567922  -10.77550642820314   -4.05987414102006
H           9.22781637998402  -10.36776243955139   -2.44389320063048
H           8.58511805794351  -11.86922633888908   -0.63325533936823
H           8.49963025123080  -10.75426724048974    2.22584466514882
H          10.14411907630813  -13.48019110523527   -0.14858532823522
H          10.05403742646767  -11.99738033083204    3.91451616211265
H          13.06496000084172  -15.92409458145028    2.98794676801310
H          13.06233032956868  -17.41421248124837   -1.07120048641538
H          13.84046735341728  -18.06431496553798    3.58252190035266
H          15.49443382424405  -19.84299021244841    4.10978339886338
H          16.80785466245458  -20.84308428201613    2.22970982457163
H          15.11162940530995  -18.36503336087608   -0.51008102485400
