101
 SCF done       -202.516666231014          0.000819911806
C           3.87648267769612    9.53951554333696   -0.69549466477850
S           4.66304061062507    9.31840920991867    0.80153033959844
C           3.84000006576050    7.81960182104520    1.04031909654211
C           4.15082463100943    7.01182572830942    2.22266139857937
O           4.74697741074744    7.41126273371345    3.18677463943164
O           3.71064827180492    5.75105070612242    2.09315134420241
C           2.98339173788231    7.52395491659086    0.01461870664192
C           3.01949287352491    8.50810773809993   -0.99780916846157
O           2.29442330695462    8.55686324056675   -2.14692102728174
C           1.84312523884884    7.50457157836627   -2.82754472995762
C           0.80143383022179    7.63702066524965   -3.73382285189769
N           0.26180334736502    8.83295489377431   -4.20507067383999
O          -0.74903523315590    8.77834845462256   -4.88502704532127
O           0.83397053563659    9.88030055276796   -3.92760464804801
C           0.36754114603024    6.32826371992634   -4.14065117902314
C           1.11477702151103    5.39878858987484   -3.49045870931457
C           2.12882775555717    6.05736710053800   -2.72144682046244
C           3.17756367869420    5.38930256024812   -2.11108885624426
C           3.07854383724661    4.06989059800847   -1.57276423716119
C           4.14254267373167    3.85349624461893   -0.74531576576974
C           5.01934477995787    4.97682745851695   -0.81067091059073
N           6.18127330786093    5.09489334919308   -0.05039619970216
O           6.84677207549579    6.12120066087044   -0.15157736272282
O           6.45764755775848    4.18240845547021    0.71318249688145
C           4.49373072802558    5.91056154129209   -1.71898932580686
C           5.13840931573206    7.03003999961857   -2.25737594101474
C           4.71308657374764    7.67463723543769   -3.39482238858970
C           5.05991111447680    8.94417130801921   -3.87435305448707
N           5.98453101898531    9.86233091900788   -3.42491038544212
C           7.06619258803194    9.65615772619518   -2.48812229464326
C           8.14203029154126    8.73408573742591   -3.05271039726300
C           5.87315753552156   11.08596059389931   -4.10770502781919
O           6.58714876343345   12.04534998160792   -3.89053384419033
C           4.77202138296760   10.89726638435256   -5.03095387948484
C           4.31775580517721    9.58235445825979   -4.88151121223959
C           3.17578189356758    9.38871843016309   -5.75661795415066
O           2.48968795938380    8.41573160549865   -5.97484753696208
N           3.01521748408358   10.63523420077604   -6.39066119401474
C           1.94617625812689   10.86608337968286   -7.33603564358319
C           0.80145153308762   11.66437468234139   -6.71808493212521
C           3.94650195805479   11.54276610118075   -5.97218495873695
C           4.03271371866662   12.86044875447931   -6.47015980028857
C           5.04583907020878   13.69753103734454   -6.10835442186328
C           5.29173751908406   15.01449997239605   -6.56113661912264
S           6.45936098518312   15.93577578970567   -5.65700368855646
C           6.23425149462983   17.33127203445301   -6.65405258140353
C           5.28914183538779   17.07687571872532   -7.64818622823557
C           4.78247793659585   15.77156931088951   -7.61754958501876
C           3.89074063316470   15.24583221461966   -8.70087479073458
N           4.41786257504145   13.95327036482151   -9.22953324433067
O           5.60725393020634   13.86319446987145   -9.38202506359359
O           3.60225693415175   13.11021600672483   -9.51310581310891
C           3.86921309654642   16.19867857560603   -9.90310284095316
C           3.61647639294727   17.62087048672284   -9.42663276538040
C           4.81692624117676   18.11916240881513   -8.61957339896172
N           4.36687788109900   19.32418724114920   -7.85576435584307
O           4.91141312960619   20.36939796485877   -8.10849250238095
O           3.48652352019853   19.16240818888268   -7.05187436847786
C           6.97630163289202   18.52403766090804   -6.45215359922976
C           7.84898198378822   18.70900928337812   -5.43308682972245
C           8.60383921839779   19.88894462462700   -5.23349559666708
S           8.49493667796403   21.27714745826981   -6.27152645495016
C           9.67044948557645   22.13559721726343   -5.33190363702357
C          10.13051817922323   23.50024873961315   -5.64311155324182
O          10.98057651088167   24.04245457143156   -4.99012300084887
O           9.55465758351832   24.10905953044783   -6.68920977008552
C          10.11780405271715   21.38292917090776   -4.27298880342458
C           9.52058744703005   20.11543283709166   -4.20821915538238
O           9.76991841630782   19.17425275028361   -3.27784797888600
H           4.05664109079902   10.40808900190527   -1.29650381445522
H           3.97808164445000    5.22733678673074    2.86571742395586
H           2.35180305376999    6.65513073566454    0.01350963597352
H          -0.41283300609384    6.16555790870072   -4.85838273171383
H           1.06160876267747    4.33599704414753   -3.61933835982372
H           2.23018744088434    3.42568333914541   -1.69499811737294
H           4.32168451724497    2.99522212156927   -0.12603345475522
H           6.02944123602538    7.34795472539760   -1.73654193869110
H           3.94272922246503    7.20254565479709   -3.99420918498585
H           6.67637024846624    9.27048262535277   -1.54309633479705
H           7.48985953557630   10.64834890886195   -2.30689011677830
H           7.72828085025706    7.76506589496941   -3.32087748040314
H           8.91649792397788    8.58295557067592   -2.30680561489037
H           8.58972544766342    9.17721623175598   -3.93927926860630
H           1.58233569344140    9.87583763275124   -7.62236743177850
H           2.34735819300506   11.36479807075158   -8.22405130454139
H           0.45427350601057   11.17452765567873   -5.81276467309629
H          -0.02324693398974   11.72053110608335   -7.42236620867242
H           1.11189232554068   12.67338944458822   -6.45642942882784
H           3.25451618202522   13.16622711481804   -7.14835834234024
H           5.74637013025147   13.34333990985770   -5.36089919062257
H           2.87033658865297   15.06327999588493   -8.34694008342383
H           3.08965488932740   15.88998149990552  -10.60069166777979
H           4.83401934808819   16.15086339124386  -10.41482796537245
H           2.72997178227225   17.64107031917001   -8.78747221224199
H           3.44470719338329   18.27766243003360  -10.28014904073753
H           5.62975794421118   18.45176720595079   -9.27453000156458
H           6.84695270179888   19.32562967442926   -7.16700346765504
H           8.00879847928804   17.93040312041540   -4.69880945309077
H           8.87516693367890   23.57374474746499   -7.12166023375699
H          10.85118587687225   21.75398051737721   -3.57884568848746
H          10.42552777306541   19.49649442522088   -2.64737900173332
