88
 SCF done       -160.710846268289          0.000856590900
C           0.71689493147290   -0.08180446261736   -1.18020417537432
C          -0.01758357049603   -0.29487451206186   -2.27898072795546
C          -0.47796253476816    0.97803179019635   -2.83712348140345
C          -0.00562675713856    1.99759975159631   -2.09574487197407
C           0.76857721632163    1.38119105908915   -0.92765037597183
O           1.21647257471237    1.95940420194492    0.02519426978985
C          -0.21898881199823    3.41184385359871   -2.13907228748437
C          -1.43074884835914    4.08790407369534   -2.08705729214863
N          -2.72382743175723    3.56539854674033   -2.19443682215285
O          -3.65320450025323    4.33998137314878   -2.00856904237975
O          -2.87115588690042    2.39403180833086   -2.50811543421971
C          -1.18483320169101    5.48085349104344   -1.80132647360021
C           0.15242572580459    5.68126741244859   -1.76480852753694
C           0.82070964424894    4.43318836146740   -2.04751982701474
C           2.16173635982203    4.24677823197921   -2.32918470237858
C           2.86137992842107    3.00683595328417   -2.40137404622144
C           4.20268736045327    3.24460999658785   -2.28859058322591
C           4.42574985510764    4.64851497325996   -2.23347399382262
N           5.70597549900991    5.20659888906324   -2.18302629892309
O           6.65389831878337    4.43766094760522   -2.13955612828983
O           5.82657933261712    6.42756584751500   -2.17412446442394
C           3.18870142947818    5.31038448868008   -2.38184899119594
C           3.05015587532188    6.65706245304430   -2.71368724151196
C           2.01224660495945    7.21898370031127   -3.43558444135519
C           1.95596588871511    8.57296724595653   -3.76885188753162
C           2.96342770952936    9.52763033759089   -3.50756279024228
C           2.61689546058030   10.73632810103851   -4.08894680102297
O           3.26772471493574   11.90092700565567   -4.07675703513277
C           4.49701200927670   11.95419814453109   -3.37888305584045
C           1.33710284771738   10.60760095880165   -4.72115827760806
C           0.93382559192790    9.22757010468141   -4.58355050865002
C          -0.13910785275238    8.63767830521774   -5.22526365847342
C          -0.88594608234496    7.48083540484455   -4.88466738032246
C          -1.84567428227096    7.29376081062915   -5.85436063043938
O          -2.80644474856692    6.40017525575012   -5.97141905639116
C          -2.95631683239169    5.42505762765739   -4.95823796089927
C          -1.66852382378053    8.31037378165676   -6.89949854349802
C          -0.68108929115640    9.12721147416550   -6.51419613672866
C           0.62047236676701   11.72487564894715   -5.15810916907702
C          -0.73863887921529   11.80159765407571   -5.36149242877809
C          -1.41310956380210   12.93909594704084   -5.82329916765041
C          -2.79576758835317   13.05456316330467   -5.96951174367914
C          -3.11324878334127   14.33896866884642   -6.44865390343708
C          -1.82563897876735   15.04433961801685   -6.61240833106080
C          -0.82614290025666   14.20163325306768   -6.24312892348132
C          -1.63323378342714   16.35064236655633   -7.07536756218918
N          -1.43264244269210   17.41650810873492   -7.45488104863624
C          -4.36897718309765   14.86929041291570   -6.70423462319369
C          -4.68349940356576   16.18200463013350   -7.11416960871959
C          -6.06172766859360   16.30981955885045   -7.22550516472136
C          -6.65520209872207   15.02439494836818   -6.88689758237796
C          -5.65746545892044   14.15715138143089   -6.57398401439422
C          -5.83383765940739   12.81790886377755   -6.21358212612470
N          -5.99750966243147   11.71718367278676   -5.92598855985197
C          -6.78100974308537   17.46868097121139   -7.59129334972981
C          -6.30127311557850   18.70147462691035   -7.92616842822550
C          -7.40185939699295   19.59426680818145   -8.22445296850697
C          -8.57538897028476   18.95055031534808   -8.08499299287127
C          -8.29666137258517   17.55446597138853   -7.67459476643946
O          -9.09375471410505   16.67864502477159   -7.45423290209141
H           1.17684854710553   -0.79922412045757   -0.52850858081191
H          -0.26092242013717   -1.24431006362000   -2.72115206508189
H          -1.08131452869033    1.05026637472998   -3.72195607203771
H          -1.96711262949828    6.19297574738442   -1.61933372103107
H           0.65026234898798    6.60038819941600   -1.52763261239431
H           2.40755963380372    2.03808450214951   -2.47154713906435
H           4.99089828588706    2.51595390779011   -2.25663774928814
H           3.90894118127906    7.27246731733191   -2.48510271311835
H           1.23461194543787    6.57302967253005   -3.81102696243821
H           3.87085684786295    9.32833164746251   -2.97099335382116
H           4.85905760216347   12.97448509257403   -3.48767853462307
H           5.22348754842174   11.25902806064508   -3.80746372103289
H           4.35643693816343   11.72524847870166   -2.31931140868770
H          -0.80758662616205    6.93940195574191   -3.96283956660369
H          -3.71462469755493    4.72961457835793   -5.31231326812543
H          -3.29481439861798    5.88027996573522   -4.02426509424833
H          -2.01545369243630    4.89413807531382   -4.78768288127815
H          -2.25434088791715    8.33945180560540   -7.79687862358720
H          -0.24845652748230    9.93287008817121   -7.07370213167503
H           1.20895881690396   12.62875020752491   -5.24983378943342
H          -1.35548383064317   10.94615987329898   -5.11962299422680
H          -3.50576559581083   12.28381313270056   -5.74274134772166
H           0.22337906836582   14.42867864333494   -6.25915647359496
H          -3.96625298275203   16.95703573386854   -7.29581036111956
H          -7.70903194294136   14.82131980952840   -6.89283510141052
H          -5.26834184630931   18.99464954190080   -7.97113896546049
H          -7.26283012641722   20.62120044669187   -8.51343193870161
H          -9.56744945119166   19.33161292038724   -8.23217377318405
