100
 SCF done       -189.145753036749          0.000703240629
C           2.88434234215376   -1.72786659650390    5.17816443792385
S           2.62017022687827   -1.11849564125178    6.75311510440871
C           2.85626339891064    0.51408312551338    6.19600334781861
C           3.22745688490972    0.52738376528617    4.86042166091513
C           3.22178507508769   -0.75512204898456    4.27590917575630
C           3.50785776562310   -0.97759529805567    2.82219745819863
C           3.65929443193930    0.30224501222668    2.02681125570983
O           4.23850505723343    0.36385279561579    0.97554008528168
C           3.07996572064688    1.53695386521623    2.71373918389141
O           2.21789742192123    2.24404482146071    2.27120049079368
C           3.72581096714236    1.70197762217715    4.07045486025363
C           2.58767531577019    1.64950774635466    7.01731536821328
C           2.97704739027628    1.93807278015331    8.31020632385314
N           3.64008869287729    1.09367122825721    9.20766204435294
O           4.16211838233882    1.59787644936903   10.18552073132089
O           3.65664596787506   -0.10678649364853    8.96405329559782
C           2.66545614642499    3.31757571982319    8.59867897177024
C           2.08119434677365    3.87728373856694    7.50913864813434
C           1.93063043900985    2.86676089824446    6.50321432937147
C           1.09489969401042    2.86711181629146    5.39955791705801
C           0.41628485293865    1.71361362893378    4.89986678200352
C          -0.45680961526436    2.10317633330581    3.93177163724350
C          -0.31125901718960    3.50613129876058    3.70105257726278
N          -1.16656190732811    4.14939698170911    2.79127335257714
O          -1.87579235066026    3.44134590753521    2.09804380073325
O          -1.20394031347178    5.37228362475396    2.75501070623777
C           0.66425506373795    4.01559452134071    4.57380076922029
C           1.36520170603171    5.23393396851316    4.59913000417569
C           1.32843251288063    6.20291779716934    3.62786935697033
C           2.00958699223288    7.42495515296217    3.73073332120275
N           1.97053536186147    8.39055077695575    2.75185421895389
C           1.25608531536712    8.31735022695497    1.49691321357509
C          -0.24351517738968    8.54387682077546    1.66934368357549
C           2.68342594298950    9.54449250587022    3.11213182396140
O           2.79507508931703   10.53022976853515    2.41588589465657
C           3.20645703742739    9.23435265725911    4.42901736276648
C           2.79329909275515    7.93946552688745    4.78144660931703
C           3.31562527737997    7.66934169933617    6.10203693216968
O           3.22923943172222    6.69860810822537    6.82763621495300
N           4.01166718916950    8.84376968325491    6.46555878108568
C           4.70072701030651    8.89873883726900    7.73263885242671
C           6.20307097934431    8.67740212949317    7.57493671377278
C           3.95616632641748    9.78967722510716    5.47172413717781
C           4.46911355764242   11.10928957970839    5.39912913065434
C           5.18733972628899   11.82261244731581    6.29953036550500
C           5.62377175571287   13.17973796922729    6.10714908026741
C           6.36457523975495   13.80073927501665    7.11510460556316
C           6.79008450203979   15.11558767052258    7.01803480443613
N           7.51905619674765   15.57638254356592    8.17542328481350
O           8.35904168965586   14.82582209948444    8.62201028489851
O           7.22590763394327   16.64779049510653    8.66309283061733
C           6.54348554050715   15.88451872087603    5.86164792854000
C           5.82254587888369   15.22519589795996    4.84380087327702
C           5.35826735807297   13.94139287393601    4.95624339410031
C           7.00746905819282   17.20963203103532    5.53836970799668
C           7.44021865528811   18.21035654865152    6.33354513823631
C           7.87516439461576   19.47282985346694    5.83995667304580
S           7.95446584501571   19.83780468085007    4.13393701908951
C           8.54490445784324   21.41039767360960    4.45761710856088
C           8.67282945367148   21.66067281769283    5.79295567034174
C           8.29390406726730   20.55558072465574    6.59006425942887
C           8.35300339428226   20.57936442967006    8.08766389486168
C           8.61744770423647   21.97674079704761    8.60217696302452
O           8.03136103692600   22.48695805452708    9.51667645710677
C           9.68267397921057   22.68701694099585    7.77270466324329
O          10.78621678778741   22.95355286247032    8.15808675262086
C           9.16160630794154   22.95337032710648    6.37756560135807
H           2.79942193823561   -2.78097293094959    4.99535336239872
H           2.67753639959444   -1.52969390738791    2.36793039318271
H           4.40254559197637   -1.59055082974714    2.67349057842936
H           3.47267279024516    2.65871361933526    4.52202846589583
H           4.81317318257247    1.62511952886065    3.96749635142308
H           2.86957165762617    3.78114764242931    9.54458087350058
H           1.69652899628630    4.87487921290793    7.45359926535886
H           0.48931148745802    0.72972287311604    5.31969895742895
H          -1.16624477702812    1.49106357978977    3.40782442448709
H           2.03087104222895    5.38848342210769    5.43685848955331
H           0.73513722014490    6.04876394916807    2.74276211381157
H           1.45006474886141    7.35179912849233    1.02300430807535
H           1.67841735102579    9.10885322561852    0.87105333738884
H          -0.70527036920872    7.74254860971723    2.24032615952616
H          -0.71464899567193    8.58289856526786    0.69137266498561
H          -0.42179119226711    9.48873955248099    2.17731583364971
H           4.27868981227816    8.08952723986506    8.33632260096870
H           4.48232605406476    9.84867060556553    8.22641509690388
H           6.38857854159492    7.68525027867840    7.17104439032386
H           6.68908109728913    8.75184228618551    8.54370075758327
H           6.64325994327591    9.41015003789051    6.90230396283956
H           4.20762785865172   11.57300444611473    4.45688262556814
H           5.47863194448283   11.38829816286367    7.24353507608320
H           6.61484585085301   13.25201741516512    8.01232691264461
H           5.62184266835803   15.77361609412993    3.93546510072224
H           4.79614350630704   13.51571574527122    4.14089125320952
H           6.95976644739320   17.42687456534298    4.47607826551126
H           7.45342232143730   18.11376175878281    7.40815413970347
H           8.76384905562522   22.07105214152230    3.64233610944078
H           9.17883390193752   19.94613288719377    8.43350036055176
H           7.43341977780280   20.19454335526492    8.53633644847800
H           9.94144626884471   23.40129902032058    5.75872697568507
H           8.32844118821220   23.66059091813636    6.45478641823965
