68
 SCF done       -140.119936110604          0.000875639852
C          -0.98094763473635   -2.07572855959365    0.19281975072174
S          -1.37313120648816   -0.54024876004699   -0.42996234310091
C          -1.45440397102449    0.13598785520780    1.17053004359047
C          -1.18121342216773   -0.81040336982287    2.14153900398196
C          -0.91169600420561   -2.08240711686725    1.56028722119185
N          -0.60308887061638   -3.25449120278794    2.31746727134599
O          -0.41333763769179   -4.27516186901711    1.69089541843687
O          -0.55324675406454   -3.14631884219816    3.52142444110538
C          -1.18627703820877   -0.53825829970119    3.52350242146499
N          -1.21437781512363   -0.25919991945690    4.63470036418264
C          -1.79492515693379    1.51097520156546    1.30773208629621
S          -1.86641000625253    2.39461888684426    2.81868389999252
C          -2.36050878892909    3.76496168616825    1.82661834508526
N          -2.41801753603398    3.47048349486643    0.55485517809370
N          -2.10677226668329    2.24248866456826    0.27149772512920
C          -2.69307297701887    5.02380074644171    2.39325015095296
C          -3.17591636635005    6.03926137906121    1.63478794651166
C          -3.58902925215934    7.27859462647362    2.18558554754156
N          -4.17232133855599    8.28513036320603    1.44977980803618
C          -4.45959825586273    8.26230248400555    0.03543840407363
C          -5.71432196146903    7.45139800972413   -0.27810310049904
C          -4.54729832967243    9.37346642842669    2.25201830589606
O          -5.09436927477035   10.37169044461183    1.82226424027192
C          -4.12834895138037    8.99841193079120    3.58404371883885
C          -3.53877262376993    7.71213952015971    3.50841762495370
C          -3.11845529884118    7.33677831368001    4.84176564109064
O          -2.57876039656304    6.33899694294427    5.27381616962383
N          -3.49101201359902    8.42961597138014    5.64390412457316
C          -3.18576498445239    8.46158654657901    7.05421094609950
C          -1.98298953117928    9.35268551996891    7.35341028956272
C          -4.10127345509335    9.42078840310387    4.91275417055857
C          -4.64136033834799   10.60215902953834    5.47920448789590
C          -5.27928884624986   11.54006350815165    4.73500507670614
C          -5.89623643993894   12.69903626276182    5.26994804756515
S          -5.88128727111806   13.09423996086464    6.96250271039349
C          -6.84194775391110   14.50148003783760    6.69817659128864
C          -7.29378129499834   15.29809510503615    7.81586706970166
O          -8.06538179967206   16.22463533844695    7.73343906499719
C          -7.14117372316531   14.66400856022275    5.34657590910090
C          -6.61486442833170   13.63895756008747    4.55351233306186
C          -7.93197559120640   15.75831229576641    4.81534018512279
S          -9.30141569453588   15.42120848517068    3.81598208087443
C          -9.67174488270309   17.08610463349321    3.66100282728224
C          -8.79106854595948   17.88051302800991    4.33967934891237
C          -7.78404731823392   17.11360359901539    4.99804725386224
N          -6.71677889720479   17.72170881102389    5.72513586084016
O          -5.75379378412887   17.02973072548137    5.98974606745584
O          -6.83154460625751   18.89199158329770    6.00138090865860
C          -8.87913295771887   19.29002759444308    4.34015791091405
N          -9.00957933816970   20.42540265703181    4.27645891545876
H          -0.81350521469145   -2.91995980544049   -0.44794158402509
H          -2.57420571150677    5.13343895196214    3.46205398375512
H          -3.27529372576690    5.88321571238604    0.57064339431835
H          -3.59563753868711    7.86702651955209   -0.50490792751972
H          -4.61417596658898    9.30441111563626   -0.25802461092637
H          -5.59923009913400    6.41653557471267    0.03583066068727
H          -5.90661294694869    7.47301403821146   -1.34698489872347
H          -6.57088247770528    7.87811943327866    0.23800735716571
H          -2.95813252143094    7.42985737915161    7.33614216023948
H          -4.06536369850313    8.79332610737972    7.61302678381114
H          -1.10738900302246    8.98508355505444    6.82411269678510
H          -1.77377314243841    9.34069654804535    8.41924443225981
H          -2.16875232709674   10.37892885190859    7.04436151583459
H          -4.56338572961055   10.73810871251208    6.54937780879873
H          -5.35653655258033   11.41461335449787    3.66204229824207
H          -6.88505627710904   14.96797563763228    8.78745796743109
H          -6.73921587948690   13.58330582307490    3.48665688548144
H         -10.51636855600298   17.40144823483068    3.08072361066526
