72
 SCF done       -136.483082765627          0.000595938383
C           0.35069549307946   -0.65259213031887    1.89981624077651
O          -0.24508896560415    0.48024396593492    2.30174620908619
C          -0.08627462041299    1.28740712198858    1.22311510916110
N           0.54944113625922    0.67375067118128    0.26801911572622
N           0.82562446596030   -0.56294812523713    0.70492289233074
C          -0.58692988136239    2.64111971312070    1.20317898145897
C          -0.34333474609865    3.44319715085625    0.09455752304739
C          -0.84965212649166    4.73244918524779    0.03790791217005
N          -0.48409000755188    5.47790029094238   -1.14695324774331
O           0.68312783711844    5.44796042074193   -1.46139939965989
O          -1.35164290592774    6.05912445947046   -1.76215188389061
C          -1.57506693305824    5.28550768998093    1.10864000585027
C          -1.74617243681125    4.46863610993030    2.23924866428833
C          -1.29357399067215    3.17179950419278    2.28584654277332
C          -2.07491072631128    6.64193468364068    1.22073984315995
C          -2.67970649928393    7.39166165689234    0.27769553752477
C          -3.11567493865389    8.72389718522004    0.54647286904979
N          -3.66040566185201    9.54366299342760   -0.41053539390798
C          -3.84246982018665    9.24358495602354   -1.81181694399322
C          -2.52932787873369    9.28820478665058   -2.58830526619194
C          -3.98543868729690   10.80967613137832    0.10617572552474
O          -4.47794141330725   11.70121538087886   -0.55727661727510
C          -3.61605471641679   10.73433402005371    1.50211529303822
C          -3.08562913674324    9.43701364675854    1.73969711269173
C          -2.73842866658824    9.35144041599048    3.13835320237446
O          -2.27072467169910    8.44968048859669    3.80977468937963
N          -3.07927279034776   10.60915972539098    3.66058217157542
C          -2.82733744859238   10.93395893410722    5.04325361776590
C          -1.54708464392232   11.74873532140081    5.21361190997180
C          -3.59408772465993   11.44684099827115    2.69489169139780
C          -4.00149815209315   12.78616151446660    2.95018641577729
C          -4.49768931513079   13.58411830516620    1.97811134161762
C          -4.90773468155915   14.95691849109589    2.12973662239611
C          -5.48846949373174   15.60389109461086    1.03566563124735
C          -5.87855866345466   16.92903981744670    1.11178825062964
N          -6.41765401148622   17.52188028045840   -0.08798256225500
O          -6.94593753200123   16.77772367780593   -0.88408784930722
O          -6.30340049316827   18.72111401801175   -0.23421129921135
C          -5.71651363536086   17.68090341933695    2.28973761639143
C          -5.13998339941886   17.01773122422643    3.38054620396447
C          -4.74313161968132   15.70300043864078    3.30690792470439
C          -6.16578609837242   19.05211110421859    2.41651506856988
C          -5.57677582490075   19.96011844115876    3.20924673532744
C          -6.04706701157297   21.30674755179075    3.32975972125987
O          -7.14741558856461   21.76353713639215    2.67833608576565
C          -7.20416270211831   23.04176054117945    3.07458106967715
N          -6.25055910078649   23.35223403013650    3.88613859551941
N          -5.50894280874722   22.24844459848041    4.05337937251616
H           0.39089835476463   -1.50023659184693    2.55118875697336
H           0.24050554989421    3.05111638734103   -0.72392394046644
H          -2.26545340457564    4.88561470713212    3.08871405399040
H          -1.46559024029697    2.56418561537259    3.16091587088399
H          -1.99272684367922    7.05199951456618    2.22139539259056
H          -2.85946243506351    7.00734581798446   -0.71329125773108
H          -4.52133276962465   10.01254731527409   -2.19171772963636
H          -4.32004729067888    8.26603120493388   -1.91919878460293
H          -2.03770470863747   10.24612944565076   -2.43583040394042
H          -2.73243604453701    9.16772206019782   -3.64847711144380
H          -1.85901324897648    8.49202082849182   -2.27569210953030
H          -2.72235780054067    9.97749443153600    5.56325734510383
H          -3.68859949751878   11.46550814060000    5.45802147930587
H          -0.69637745546649   11.18183304625563    4.84390538047848
H          -1.38713341202060   11.96829016321354    6.26565825715805
H          -1.60167330216130   12.68540211976661    4.66292210167965
H          -3.89788829223546   13.14529468830911    3.96349383499129
H          -4.60499761830247   13.17646929219144    0.98158432204214
H          -5.62870571259811   15.07258712829904    0.10525718773209
H          -5.02742723669291   17.55598642056812    4.30877262732300
H          -4.29577671927761   15.24608894096432    4.17553618047371
H          -7.01327224696927   19.36029975073605    1.81962147564406
H          -4.68568667369848   19.75248882092638    3.78066542139519
H          -7.98395771276919   23.68174771421446    2.71804259753035
