69
 SCF done       -144.467947031735          0.000883452163
C           0.31153500159723   -1.00124191020385    2.43049687009556
O          -0.42814016390365    0.07273792821280    2.12858106161418
C           0.18193871639570    1.05340132520291    2.84184665280518
N           1.20089217931895    0.58216299494092    3.50895747333121
N           1.27738296305655   -0.72611070464415    3.24276579398761
C          -0.27433848498775    2.40441542724827    2.82178354362629
C          -1.33400684829325    2.91965017189365    2.12714716479936
C          -1.43240327922118    4.31894361182667    2.42562103667854
C          -0.32006329085143    4.62310446201163    3.34344571621943
C           0.36679996965685    3.47255067693434    3.57082281195941
C           0.04913681642065    5.88558570224549    3.82795395533215
N           0.41161779140001    6.90706286849856    4.20609296202087
C          -2.37458604446322    5.20523456165596    1.96117763104272
C          -2.55084377546526    6.56181862245915    2.35262919963002
C          -3.56564551173764    7.12536623555168    1.60111175097060
C          -4.07401652975065    6.09859047416687    0.70094962622431
C          -3.39264567504782    4.94539633174189    0.92665934234102
C          -3.62367598857145    3.74004800451413    0.25289170685377
N          -3.84580478257549    2.76928585148851   -0.31869566831748
C          -3.99542448312669    8.46818319540196    1.74616110201966
N          -4.73464094942690    9.20288066434800    0.85754999706761
C          -5.21146043882377    8.80580949721532   -0.44012239135940
C          -4.93837421355049   10.52576298415159    1.30763541345482
O          -5.54730025601325   11.35707228014736    0.67145778681531
C          -4.27974930591395   10.57016102702697    2.59646518255295
C          -3.71257272559781    9.30455597426824    2.83652836463875
C          -3.11280445663594    9.32152699538781    4.15973468543805
O          -2.55288999451404    8.47386897890325    4.81549094781263
N          -3.34038128599184   10.63475541299995    4.61730456768474
C          -2.86426223177569   11.07309284123793    5.90130666995292
C          -4.02701204615895   11.39358180114654    3.70557040333886
C          -4.36805604440317   12.74385898235031    3.92125277733275
C          -5.00336942999354   13.49509117980628    2.97589290069524
C          -5.37047886632224   14.85596242056184    3.12810985739299
C          -5.97007147442135   15.53390282543766    2.02985520971347
C          -6.38716469991199   16.90795534799150    2.10070630657646
N          -7.05134784452523   17.45983196433157    1.07102706752291
C          -7.21842246645823   16.76860171250285   -0.02230502926238
C          -6.68455546469347   15.43705638177526   -0.14190894114569
N          -6.11730670819533   14.85626815247373    0.88232192262182
C          -6.79432095679946   14.73023835473972   -1.36637591545063
N          -6.89293888360470   14.19981979855979   -2.37641614703131
C          -7.95896275906332   17.32331893205862   -1.09884796664075
N          -8.54877153167394   17.71611525122830   -1.99783283264792
C          -6.14667966006374   17.68124845404672    3.25345778168953
C          -5.55705089077028   17.02902732571374    4.34771920728285
C          -5.17975261348200   15.63183177480618    4.29490081514090
N          -4.63928303633831   15.23392102216139    5.44887444787107
S          -4.60525607936253   16.47022960937869    6.47346584138869
N          -5.26441654596576   17.57710405315221    5.53005855732669
C          -6.46307710605592   19.07933415179199    3.29460896337910
O          -6.50930329217888   19.75852998840993    4.46707963952062
C          -6.79926800375208   21.00083590846892    4.06618214944289
N          -6.91287466702147   21.09175173354125    2.78203388664661
N          -6.69785694259577   19.87205222585306    2.28416849147271
H           0.07342870868469   -1.95572485972088    2.00965515777580
H          -2.00214916227986    2.37576966405552    1.48862538273878
H           1.23851228141273    3.33572068771896    4.18103684680467
H          -1.98824552673937    7.05503770408851    3.12030489538376
H          -4.88116093697609    6.21161065760235    0.00383912974567
H          -4.41545773897191    8.33961639345105   -1.02126182460987
H          -5.54485593287235    9.71439030827821   -0.94408646714753
H          -6.06181794517013    8.12584405747996   -0.35760212166795
H          -2.35383509737529   10.22332983079994    6.35512456304234
H          -3.69295311046694   11.38074669783806    6.54131212775847
H          -2.16030979950188   11.89991030833820    5.79443486017587
H          -4.10402908787588   13.19303663385890    4.86744323401900
H          -5.25937341989630   13.05707607058553    2.01941175014229
H          -6.90797793977370   21.78759400649455    4.78330211436470
