104
 SCF done       -223.457073988650          0.000725279105
C          10.63768393466099   -4.66191033760132   -4.35248864733542
S           9.61923321630460   -5.71119609983195   -5.22160740082574
C           8.41961119740606   -5.70269075587926   -3.96158876203936
C           8.81879675401749   -4.87028745208807   -2.92498702214880
C          10.09525438728887   -4.29017372184638   -3.15422967257765
C          10.83817296036545   -3.37583563645853   -2.22465102341259
F          12.10702524337634   -3.20706414283419   -2.63556315262790
F          10.30735283247409   -2.14710287730347   -2.15868922812972
F          10.91290081365679   -3.85055731165311   -0.97517589498901
C           7.95235213432531   -4.55068728911207   -1.74865657537202
F           6.68495069911455   -4.29166684987393   -2.12831600311470
F           7.87297099280937   -5.56568848652379   -0.86305463831735
F           8.34750264395372   -3.48389453813465   -1.05890646877509
C           7.28512700082770   -6.54076323501340   -4.19541180796031
C           6.41186529805113   -7.03570916042286   -3.28591605813798
C           5.35658224702596   -7.96158663165049   -3.53876631380165
C           5.14550938008816   -8.90183628129960   -4.55341893622971
N           5.80492533147989   -9.14304035698997   -5.77093176240191
O           5.69942367283447  -10.26749153048337   -6.23428033258998
O           6.42909349794917   -8.24848763423079   -6.32101703350630
C           4.07739387948296   -9.77956111860540   -4.16727635568825
C           3.63626608729877   -9.42625798492523   -2.93190255827639
C           4.38204259374022   -8.28627890101573   -2.49147578457638
C           4.12761930540890   -7.55764662512951   -1.33759441562437
C           4.25801949322671   -6.16197327816907   -1.16445221796623
C           3.66289578812233   -5.81491993792221    0.01992598272438
C           3.18424122676044   -6.98137951321466    0.68569756726115
N           2.53929406623264   -6.86270044945534    1.92245498350548
O           2.53827742319364   -5.76146852628302    2.44744696843030
O           1.98720039317542   -7.83830919918299    2.41859961989902
C           3.49828431887611   -8.10641478851976   -0.10288999741102
C           3.53039418057908   -9.48393830965004    0.11340912772448
C           3.00830466188858  -10.19818955607711    1.17487987797808
C           2.99341777193204  -11.58159458866946    1.33244765752674
S           2.36685576242566  -12.14946151887872    2.86093129099954
C           2.56357313227460  -13.80397230826964    2.44466304645080
C           3.08857781652134  -13.93666375679447    1.13836461800544
C           3.34833470515223  -12.68772662000084    0.50486152712399
C           3.87449636319484  -12.69048192474608   -0.79325757848262
C           4.15130492657564  -13.87413843137390   -1.44357483755863
C           4.71469210804363  -13.87996473357480   -2.82551100018920
C           3.89822812171349  -15.09789971900906   -0.79663192001770
C           3.37760006626882  -15.13659837188357    0.46763798604848
C           2.33245776419956  -14.86515621139934    3.34687011982702
C           2.01446001462755  -14.74646552342147    4.66012497313252
C           1.99793218773748  -15.85127209018907    5.58647727931056
C           1.09590470284564  -15.81798686807910    6.66400539752501
C           1.02607712554786  -16.90277103557283    7.50183534106215
C           1.84876537207475  -18.02140289021363    7.31150578782917
C           1.53116274288811  -19.01106198751420    8.37031180440592
O           1.99881302428553  -20.10450105362677    8.55905491850557
N           0.53372167020886  -18.42317157356927    9.13374986248496
C           0.17059740407400  -17.16082153206195    8.68852009204843
O          -0.67566970929535  -16.46502277659918    9.18634331262431
C          -0.04209459100467  -19.04770734952644   10.30651928539337
C           0.75376039896492  -18.70326433607078   11.56015455327652
C           2.77447757873424  -18.05860402962216    6.29618521736087
C           2.86907003279028  -16.96198153621501    5.43020566403623
C           3.90531052023555  -16.91029997960094    4.41938071386759
C           4.36028165063481  -17.95491059401272    3.70589567029678
C           5.23947535356909  -17.85330698582857    2.57578925721146
S           5.15596648220321  -19.13322827192956    1.40578526658041
C           6.18643760532256  -18.30370348875252    0.29089345143659
C           6.55834959659011  -17.07940117285553    0.80225656908307
C           6.06567369917237  -16.84286247466774    2.11630209012071
C           6.52825374890663  -15.69158418220055    2.95629559923721
F           5.70813860181078  -14.62041326723149    2.89946888603248
F           6.61619391631062  -16.02288006717194    4.25602693658840
F           7.74606146097941  -15.26572035266363    2.61627239647682
C           7.25602194862135  -16.03118116249538   -0.01310400965882
F           6.95751775612682  -16.13874645441593   -1.32208386760303
F           6.87432175726654  -14.79099075909213    0.32270936254160
F           8.59204452262044  -16.07374681678197    0.06970583867826
C           6.54689005420876  -18.97402841048057   -0.93917781791187
C           7.72050551452268  -18.86401197180315   -1.55202067508101
H          11.58851593536440   -4.36288577780280   -4.74680026883415
H           7.18342642646622   -6.84319451267379   -5.22890091310906
H           6.49906583883356   -6.75789809236748   -2.24679308173963
H           3.70336351377765  -10.56342885088648   -4.79851828862903
H           2.77796869983751   -9.83006914719683   -2.42942948038940
H           4.62957527490772   -5.47760430916783   -1.90030296090465
H           3.54205978600620   -4.82259830724681    0.41319330576907
H           4.05850080762644  -10.03159899145340   -0.64935939731322
H           2.54120252302546   -9.63653748505373    1.97426351617479
H           4.07278685561780  -11.77034178660537   -1.31413226870568
H           4.04651584370711  -14.41126010493880   -3.50208226198416
H           5.67022330113122  -14.40180811050289   -2.83662312717822
H           4.86230968221447  -12.87068712882714   -3.19951035041235
H           4.12195953309825  -16.01616149990472   -1.31996132915359
H           3.18039055863042  -16.08422274619658    0.94591843383542
H           2.45306436541613  -15.85657962649702    2.93318915929165
H           1.75208931110448  -13.77381281910418    5.05602173278915
H           0.45145692590230  -14.96472558852675    6.80995525087183
H          -0.03825549156381  -20.12712538934712   10.13748952518384
H          -1.06959083324266  -18.68745906501147   10.39608577305456
H           1.77860704794377  -19.05416688232319   11.46327672786898
H           0.30121847226240  -19.18016844599077   12.42462125971493
H           0.76037900463617  -17.62720353467145   11.71771416671392
H           3.44173097680891  -18.89958350750683    6.19117009857506
H           4.28071671982390  -15.91899012620619    4.22121500525675
H           3.93917672382791  -18.93931963922491    3.85991569255393
H           5.79904949577568  -19.66126489094904   -1.31196669765841
H           8.51400701406132  -18.23837442216325   -1.18223194697903
H           7.92612734258454  -19.41621152045342   -2.45150340526664
