76
 SCF done       -142.738207357005          0.000741611434
C           0.48947578326806    0.97606623675133   -3.99702806545412
N           1.50441969682018    0.34464478898713   -4.61679439205408
N           1.51036315120587   -0.92084310246214   -4.50803089368457
C           0.47479568774524   -1.59611310033921   -4.01042371378412
N          -0.71707037978274   -0.93631751421290   -3.98680868928629
N          -0.63388779548023    0.32707989274801   -3.84164139499532
C           0.58733104454148   -2.96764916650657   -3.67256334132027
C          -0.33423985850258   -3.71892995351584   -2.97362904038821
C           0.16910246295794   -5.04425777082935   -2.84716209225567
C           1.49092779040017   -5.04996261343102   -3.48953173392155
C           1.73439717320317   -3.80050315587818   -3.97244902158948
C           2.40865227178842   -6.10846182370594   -3.51585182646953
N           3.21068165296891   -6.93026548426436   -3.52470939007396
C          -0.45449348466627   -6.12724827256821   -2.25621626482879
C          -0.03384150181801   -7.47817614006975   -2.28683331727248
C          -0.89753544820191   -8.24755099356807   -1.52230693916027
C          -1.92146675544227   -7.35966341600620   -0.99175240075369
C          -1.68162968884097   -6.09913778331840   -1.44384605025403
C          -2.46269551255830   -4.98052583553804   -1.13421130812455
N          -3.12272074830352   -4.08514290650121   -0.84733320232292
C          -0.73402484376290   -9.64494399383385   -1.35194521075469
N          -1.25720669706861  -10.44015359530515   -0.36100030243580
C          -2.11760368749046  -10.05694285752073    0.73354576960305
C          -3.59220951642321  -10.20276194309508    0.36471173411217
C          -0.82185755595935  -11.77209714419094   -0.46974710051953
O          -1.13429241655803  -12.64443122450687    0.31629143950838
C           0.01961154721357  -11.78466867541698   -1.64560472977450
C           0.05818155289401  -10.46978085766210   -2.16030254122001
C           0.84868213305368  -10.48831047563187   -3.37375470017504
O           1.12681484716331   -9.63841608665225   -4.18945756558964
N           1.26692120383840  -11.83342097508625   -3.48958208774826
C           2.16222444043436  -12.23312613586419   -4.54766421675596
C           3.61080675642283  -12.28745112053441   -4.06826488568846
C           0.78929943616431  -12.61190154231904   -2.46855113622390
C           1.06414096292315  -13.99953888466457   -2.33711870705809
C           0.58274608902568  -14.73722102971190   -1.30920449668158
C           0.81547750291046  -16.14026259695980   -1.08611191772067
C           0.22762624067935  -16.74291107818578    0.03076449778240
C           0.42458198131505  -18.08389299139022    0.30359932007213
N          -0.15079201878906  -18.60665697737083    1.51934907168497
O          -1.10508786871998  -18.02208948438438    1.98011848912985
O           0.36761459547907  -19.58595651164624    2.01474217640327
C           1.20584547380034  -18.90188807652456   -0.53193725635992
C           1.79349001690899  -18.28579367771492   -1.64363576481400
C           1.61070659173642  -16.94939596870053   -1.91338940825978
C           1.35881966417305  -20.32531205845330   -0.31472062957743
C           2.48296437123433  -21.00777541908845   -0.58727299559788
C           2.57836952415369  -22.42094106370981   -0.36215217868513
N           3.74685148051205  -23.03844371767419   -0.48826733350049
N           3.91208644771551  -24.23833972547187   -0.06411427041436
C           2.89868643585208  -24.73731497276892    0.65592546552388
N           1.68334598503122  -24.30716624637851    0.41917232850116
N           1.48194682148110  -23.19690977805351   -0.19461842813916
H           0.55281823175614    2.02576156744326   -3.77844507255096
H          -1.28026642822727   -3.37000134162224   -2.60884087228983
H           2.61574123491410   -3.45943748888146   -4.48142734980675
H           0.81605116022129   -7.84177671736965   -2.82833741964539
H          -2.76008769781424   -7.64240728925162   -0.38583033225430
H          -1.87501132786720   -9.03822502551479    1.04213918239139
H          -1.88898767262282  -10.73826068987454    1.55874101039362
H          -3.83631210873875   -9.62670957332318   -0.52552561838736
H          -4.21489068608218   -9.86231992008743    1.18748155280061
H          -3.81798771389311  -11.24783335796868    0.16789979787807
H           2.06576975241587  -11.47195712738400   -5.32693329759434
H           1.84388087843471  -13.19678897628611   -4.95493935104521
H           3.92070136975051  -11.30437953775372   -3.72307333897459
H           4.25870201123964  -12.58689844482517   -4.88726110570135
H           3.72688614263599  -12.99525436882053   -3.24986049087020
H           1.68349003464630  -14.44827675695606   -3.09968553972806
H          -0.03787650643311  -14.24784450339147   -0.57005085142497
H          -0.37958692822700  -16.15741124596935    0.70624410568355
H           2.38141414396306  -18.89148998613059   -2.31577802290112
H           2.08766784279944  -16.52536497398738   -2.78282192573093
H           0.51900033115550  -20.86975194028113    0.09584061477867
H           3.38990684059743  -20.52756577320149   -0.92388912004966
H           3.05341405671430  -25.59427152783321    1.28608409443175
