90
 SCF done       -179.885893987218          0.000581485372
C           3.87697464327238   -0.27839397662358    9.38129996913103
N           4.01424940650398   -1.59274619756384    9.35273321024522
N           3.36749814067202   -2.34779296677995    8.64704257584678
C           2.09608985967953   -1.88597162423989    8.06250463152851
N           2.43222679438565   -0.51262067025448    7.66698592236744
N           3.10986467533075    0.18198804104256    8.40992288422837
C           1.48723310940911   -2.74019959971795    7.05985604375502
C           0.23078834382134   -3.15647057376968    7.56462112719690
N           0.00235602243104   -2.63361384305439    8.75367339411579
O          -0.90326469692685   -2.71038449960256    9.54176500007765
O           1.11766517036045   -1.83514884974778    9.09870628560360
C          -0.37583679833254   -4.04314077249924    6.61700009192593
C           0.51285513846526   -4.18448053190545    5.59903994887819
C           1.71088467161369   -3.39389902072285    5.83632707534364
C           2.83334067294036   -3.22719662985739    5.00985360084831
C           3.64635002345422   -2.08003817016414    5.01663117977373
C           4.55765527648320   -2.17749075341810    3.98449583058786
C           4.37380850526213   -3.40363757240377    3.31520657748300
N           5.17601460278528   -3.71569816758434    2.20509510821242
O           4.84702765307444   -4.62148412922466    1.45040383475347
O           6.16888788883595   -3.03095994120264    2.02855345839783
C           3.32509668770048   -4.12722525566061    3.96234866996129
C           2.92991669841126   -5.46195023385036    3.92107403632339
C           3.36699053936663   -6.44481151768448    3.04700934800513
C           2.96110532872453   -7.76952008424526    3.13726100887621
N           3.39006443708660   -8.75520507651507    2.28400406822829
C           4.34929543726630   -8.60109969436607    1.21270407880418
C           5.78176455678543   -8.58154742735901    1.73704559054867
C           2.83112822623670  -10.00811215247305    2.58322931247939
O           3.03600802970313  -11.01760697349906    1.95420200844699
C           1.98379600447452   -9.74264361805180    3.74123753725003
C           2.06135873170470   -8.39508256359536    4.05216632524878
C           1.17857094782003   -8.15591548083049    5.18446917056099
O           0.92564132947261   -7.14474092157253    5.80714904067808
N           0.59798678451160   -9.40351331637285    5.45922913268153
C          -0.24732538130790   -9.55605304858062    6.62328701000760
C           0.44429614892761  -10.34581389724292    7.72981894871774
C           1.07758735332701  -10.38750735281254    4.62184941042747
C           0.82980898499768  -11.75425041041526    4.57541511937035
C          -0.18254201859375  -12.47657523125107    5.18234290691916
C          -0.27774583409847  -13.86743880135440    5.19137609430866
C           0.73506367021790  -14.85480024610053    5.16189012106056
N           2.12741300060908  -14.69015972117450    5.26162367098343
O           2.57388338456469  -13.58354275843551    5.52924031523207
O           2.81687568689716  -15.68422009630800    5.11787494352673
C           0.13149082563023  -16.12869216682073    5.27539428728393
C          -1.23217807206684  -15.97556218295532    5.39468228068035
C          -1.54508325477147  -14.59977743079867    5.33997716130989
C          -2.81846828901927  -14.02856248751733    5.22409475985413
C          -3.13368382767328  -12.88731069413210    4.44093967480450
C          -4.49779170056297  -12.75128162178347    4.37057356724536
C          -5.09280320927680  -13.77671394190721    5.14664264689321
N          -6.48142920481953  -13.87981760056149    5.33080952278380
O          -7.18549435682738  -13.12064726954786    4.68693447352889
O          -6.91507759021962  -14.71375419665956    6.11119542477175
C          -4.08089326169827  -14.58354310206311    5.70407713253385
C          -4.27961570702963  -15.60792184112579    6.64684452364598
C          -3.36695774207097  -16.04506549468599    7.56489053021648
C          -3.66128789990875  -17.08705850890162    8.46411963510594
N          -2.71089271243915  -17.61134912966227    9.28958169972996
N          -3.11492041430943  -18.24720970146292   10.30968255593929
C          -4.37175623858808  -18.59026007649008   10.46334017027957
N          -5.18183444424176  -18.50518688747770    9.39660086104480
N          -4.84851174692233  -17.71619846520618    8.47299623615091
H           4.45488191638357    0.35576772321599   10.01912245526594
H          -1.34569439120003   -4.48871536859134    6.71029530850613
H           0.33867574380755   -4.75398040038500    4.70757575871689
H           3.51382277514953   -1.23647978123459    5.66688020042874
H           5.29143110815033   -1.44676164849571    3.69992369294713
H           2.23782670645425   -5.76529883873264    4.69555839125265
H           4.04058644999493   -6.17743364038500    2.24784753690643
H           4.13062614039436   -7.68684073904702    0.65638395105218
H           4.20923764914197   -9.46290821039119    0.55493756060546
H           5.93972347195023   -7.73988397021944    2.40675827754276
H           6.47116909499531   -8.49291504474997    0.90289899753481
H           5.99882916486393   -9.50235457404866    2.27306615698402
H          -1.19647966674258  -10.01572906827707    6.33706430479117
H          -0.45375509208899   -8.53881538261059    6.96970197172059
H           0.74030787335631  -11.33360042447777    7.38531707112231
H          -0.22831964899879  -10.45517850969786    8.57582417960229
H           1.33508233405070   -9.81795670452309    8.06086327731433
H           1.51124250180708  -12.28155259102349    3.92151665952393
H          -1.01214172182643  -11.94875067214164    5.62997061201051
H           0.68115098156105  -17.05115470321494    5.28176439864946
H          -1.95080945445677  -16.76998673422921    5.44463872478272
H          -2.42065323174760  -12.30902506182350    3.88483431378648
H          -5.05201790441964  -12.01107229977635    3.82557370299110
H          -5.27523248481202  -16.03613285923980    6.68964948682127
H          -2.39148496409823  -15.59253390823628    7.66157369570218
H          -4.70902434361205  -19.05966746132488   11.36848655011811
