82
 SCF done       -159.900119799728          0.000611633567
C          -1.60651918985262    1.12302019807632    8.44405738428556
N          -0.28661797506883    1.17870125037128    8.42893821429961
N           0.38265671910122    0.14333322864708    8.12976541060016
C          -0.28268060532154   -1.00827063637345    7.91171587233212
N          -1.51391262114449   -0.85306495752215    7.39320129773446
N          -2.16892670898374    0.19114294447892    7.69645601380911
C           0.35282368093933   -2.29294197527901    8.01282126344261
C           0.28189999414128   -2.98987621359025    9.20710518723126
N          -0.37825653904192   -2.44003518324177   10.29229491848946
O          -0.43290546486514   -3.02990299389974   11.35195695087697
O          -0.89561984294874   -1.32856611585196   10.09145148979026
C           0.94309234287169   -4.25668086130744    9.06490132318373
C           1.37276662413158   -4.35080888628904    7.78199579072879
C           1.02227007621020   -3.15183212117567    7.05961564970964
C           1.28208297766958   -2.81408809996176    5.74228647602104
C           1.30893934293442   -1.48771172856995    5.22156535731277
C           1.79553136602790   -1.52923503447939    3.95161974548286
C           2.06857253095138   -2.89087448709147    3.59150023288886
N           2.48262882326867   -3.18883215410373    2.28470479129155
O           2.42682392668856   -2.28599289142814    1.46663966022802
O           2.88502382633501   -4.31212837981570    2.01228703259730
C           1.72599706910687   -3.72426003579817    4.66719458964319
C           1.56334496071582   -5.11900614862446    4.78512389691272
C           2.17384575456952   -6.10018666814357    4.04987611901979
C           1.86979505009304   -7.46295819122930    4.21875631058184
N           2.46072048621349   -8.46462013172801    3.48644710363776
C           3.43335189876654   -8.30120209208950    2.42870009026318
C           2.80910231074993   -7.77488222920615    1.13976515370988
C           1.98488768289899   -9.73227609614346    3.84223819693683
O           2.36648531410923  -10.76858849062628    3.33711373119887
C           1.01985997835491   -9.47363538087012    4.89571489346572
C           0.97057700956447   -8.08026087856519    5.10509775049338
C           0.01976976387855   -7.82310960259161    6.16452615550659
O          -0.35965378697664   -6.79623715235133    6.69186136330643
N          -0.45322591230335   -9.09857288997977    6.52523361685105
C          -1.39673077048134   -9.26109460418377    7.60495846862595
C          -0.70900431978975   -9.69647349213772    8.89672357345431
C           0.13174027273387  -10.09362507422324    5.78160647056039
C          -0.17176591331823  -11.47126671694339    5.92656272750336
C           0.42856199646464  -12.42594328198000    5.17391230184990
C           0.18257601031539  -13.84008389773532    5.23991751662299
C           0.86459352228381  -14.67659608047102    4.34852569331944
C           0.68772974491506  -16.04668166327291    4.36538197338667
N           1.45886324025018  -16.79211285781877    3.39079407987918
O           1.64487720489085  -16.25440620084165    2.32277274439183
O           1.88342739430277  -17.88304425280023    3.70057937401247
C          -0.21639708474261  -16.66366787750834    5.25488143587118
C          -0.89780140923362  -15.81011698073922    6.13702062830401
C          -0.70134873197491  -14.45053418083542    6.14393430803728
C          -0.46323288784540  -18.08719160351761    5.25676979955936
C          -1.57384850187005  -18.67322592775370    5.74485714372807
C          -1.75934645081850  -20.09119869126503    5.69065593697346
N          -0.73499405684998  -20.95179612251902    5.46658180882298
N          -1.07668395861894  -22.09522103296175    5.00185572078333
C          -2.32650463057296  -22.48376468773943    4.98625437963542
N          -3.20611925411588  -21.84704159384490    5.77585347417024
N          -2.92979500050588  -20.62323689062866    6.02481894821819
H          -2.18912785313842    1.90989064271239    8.88405095366399
H           1.05882316830266   -4.96869751374777    9.85824556729123
H           1.94828000870552   -5.15670476554615    7.37334867629614
H           1.07027540045296   -0.60382381302626    5.77818488739082
H           1.96796068042015   -0.70185387879162    3.28931875089352
H           0.86110752796935   -5.42721590029600    5.54932301166389
H           2.91760351691121   -5.83883599884759    3.31557111190857
H           3.85145067325694   -9.29717669636345    2.25729959085167
H           4.23123236722805   -7.63537666375585    2.76743685849866
H           1.97292250585029   -8.40383097439961    0.84354983649645
H           3.55298792963088   -7.79298365448871    0.34863596745808
H           2.46160787480779   -6.75213048824304    1.25703938467692
H          -2.17052712677060   -9.97601727039213    7.31193513980969
H          -1.86093845338119   -8.28175759304543    7.75045771036211
H          -0.19373026858495  -10.64591012213271    8.76700095044489
H          -1.44581295258336   -9.80170822196280    9.68796685343475
H           0.01870603199660   -8.94767228273216    9.19906998837702
H          -0.91553026574767  -11.73442964980498    6.66419688037133
H           1.16415312296164  -12.11722309707097    4.44256132450651
H           1.54952214122042  -14.24816042668466    3.63063587877929
H          -1.57877210871674  -16.24455283213974    6.85135740668520
H          -1.23942157104829  -13.85061498184967    6.86075017190019
H           0.29336515882325  -18.72542181472951    4.82101969705259
H          -2.40643773019064  -18.12088878229861    6.15427898981020
H          -2.60610705775519  -23.39142842231767    4.48342686995959
