106
 SCF done       -215.320366906913          0.000443216859
C           1.73460578881273    0.80781038788780   -4.66282534735148
S           1.92167602686794    0.96440052646217   -2.97299533471019
C           1.42173071825143    2.63368631661918   -3.02350174623959
C           1.12295978525066    3.01396955048630   -4.31490894891133
C           1.30884536696058    1.96349517742443   -5.24819162031663
C           1.13864677546056    2.13166554689898   -6.73245676764215
C           2.52938425417927    2.13302243528775   -7.37463559378793
F           3.35637947437314    3.04951238956949   -6.85279463362976
F           3.14246440865251    0.94772635969371   -7.23064660367509
F           2.47991270015711    2.37169976158826   -8.69301194312697
C           0.35897233431000    3.40194808803827   -7.09276905776054
C           0.76459057601808    4.59205185808727   -6.22637532891159
C           0.53441652284415    4.33045283781529   -4.73350503116977
C          -0.95982178839485    4.32002403708821   -4.38762884376329
F          -1.60528584297386    3.23160080764489   -4.83335605594889
F          -1.16559530834635    4.34701373398077   -3.06128120476752
F          -1.60673424249283    5.37892397172770   -4.89183745482247
C           1.41397912440561    3.36719303884609   -1.79389239708169
S           1.52030707099462    5.09984575950183   -1.69272055037873
C           1.51970635410151    5.07101767949622    0.04364098063522
C           1.44360722148862    3.75279471690234    0.50169043710383
C           1.39236420856975    2.80792595172841   -0.53733611287877
C           1.42622227787748    3.36179613172451    1.85005038686055
N           1.41365799537139    3.00104209687252    2.94003020760576
C           1.59497465210129    6.29781671739602    0.74195897975590
C           1.57576698485864    6.42614398472230    2.09716628215510
C           1.66137051396796    7.67979984869524    2.74238185046534
N           1.64338323286187    7.83241427513241    4.10785070346179
C           1.59474670205320    6.77787927112558    5.09312326019327
C           2.95295546104594    6.10587297213414    5.27538703890531
C           1.73933128648154    9.18100196629114    4.48842513285494
O           1.73742974679267    9.55356927740208    5.64503776129285
C           1.81597185625384    9.90333344293368    3.23582104828403
C           1.76494247756955    8.95956093871521    2.18699929802785
C           1.84563185658959    9.67920194446410    0.93326736576280
O           1.84516673117750    9.29905685441584   -0.22209552699657
N           1.94823484294414   11.02457901723337    1.31088758801620
C           2.00403364810288   12.07782095490455    0.32467924113452
C           0.65310185933315   12.76663859055921    0.14996224189769
C           1.92912602901717   11.18370772482631    2.67917134857846
C           2.02956531939063   12.43098789233776    3.32534386198784
C           1.98770825142187   12.56525991777321    4.68419305731282
C           2.08889089003999   13.80055819168575    5.36139569776215
C           2.26774090529201   15.07174163351827    4.84686646955856
C           2.31003576545250   16.00939494499140    5.91201261599334
C           2.13949829067842   15.22770455004265    7.15387237568587
C           2.01189459291122   13.92068053355262    6.81228402946570
C           2.10420184861038   15.72799404655531    8.46032596462985
N           2.06996204421532   16.10529861341295    9.54484655893219
C           2.48067714064535   17.37275198284136    5.81904849060358
C           2.55996591973522   18.31806043642437    6.88137827971478
C           2.78621344482167   19.56959716324292    6.36255635854311
C           2.81807818383890   19.45389568465624    4.91561990684249
C           2.63507586221756   18.14819282191755    4.57765679943576
C           2.58451924561735   17.66149915809384    3.26889295655945
N           2.54143648784997   17.28877258874643    2.18202492370339
C           2.91890180357047   20.76567513180526    7.14031074307196
S           2.09077202718340   20.83651590505740    8.67059372952827
C           2.67814273419826   22.41040358438092    8.96911176089137
C           3.48294384783082   22.86613722368634    7.96479811316878
C           3.62362444607467   21.93081120981724    6.91096792439957
C           4.57944417088853   22.17167112193153    5.77675292654764
C           5.85469760138551   21.36236992216194    6.03981306180846
F           6.35027938168323   21.52839213188020    7.27422723900247
F           5.64705096426455   20.04475060979522    5.89517510725109
F           6.84305810879411   21.68000216022458    5.18921269455919
C           4.88424911121430   23.66429472780865    5.60454454431274
C           5.23946036330191   24.33971172011015    6.92669634876027
C           4.10101192855022   24.23595538154919    7.94743202164865
C           2.99801092686763   25.26015811561204    7.66754848149808
F           2.29184138724371   24.99875313530156    6.55826451144456
F           2.11081557090687   25.31584554105933    8.67280213290491
F           3.48149630241019   26.50340702212190    7.52419898831303
H           1.95574625429212   -0.12681232747080   -5.13822713995525
H           0.63180239855758    1.25547857562035   -7.15193498383385
H          -0.70456519697425    3.19682522509124   -6.97321962162209
H           0.52912293818398    3.64573767024101   -8.14271737233094
H           0.19469773393140    5.47106904613876   -6.53085727821748
H           1.82265384106207    4.81454620407088   -6.36728428024574
H           0.96426821954534    5.15507998407607   -4.15700992198816
H           1.33053928808601    1.74743011410695   -0.36615607426657
H           1.67434369877663    7.18720789063415    0.12920414857792
H           1.48866956157162    5.54879876441012    2.71886283663137
H           0.83633670074863    6.04387767954000    4.80852361816485
H           1.29235579314527    7.25473672333264    6.02958919193759
H           3.28838098768575    5.64432586394742    4.34948041333202
H           2.87872616878026    5.33604748367870    6.03779017764718
H           3.69285054037626    6.83852612934855    5.58880441136763
H           2.29534126825817   11.59709152362243   -0.61332563582908
H           2.77519474285603   12.80064981500115    0.60411698928963
H          -0.09338002771494   12.04578694915162   -0.17478565407546
H           0.73475089836566   13.54663885215733   -0.60156853458486
H           0.31910561066085   13.21545716031177    1.08267493406289
H           2.14512810838297   13.31037296150506    2.70900955379850
H           1.86594698711795   11.68150362941531    5.29668355977907
H           2.36700919515558   15.33342175717279    3.81261678221491
H           1.87353087927372   13.09033302470636    7.47988172540861
H           2.48799605401928   18.07764680241931    7.92382676841328
H           2.91117781724600   20.26540757030239    4.21883967937826
H           2.40003408057807   22.92539429510338    9.86706712878675
H           4.18451678450066   21.77978665627688    4.83606908940060
H           4.00479818232674   24.13845082160117    5.16774600519749
H           5.71113602309582   23.78605219112863    4.90302273181956
H           5.47232420569763   25.39031474918288    6.74582896956246
H           6.12649222587760   23.87464016684254    7.35688168488943
H           4.47596348456469   24.48823429976012    8.94565237696956
