98
 SCF done       -207.060723145122          0.000898234142
C           0.69957880822922   -2.02805055833946   -6.92744419952022
O          -0.55952847544090   -2.40936943461427   -6.76359987024882
C          -1.25810295411156   -2.05751377865243   -7.87916861096584
C          -0.40944149285776   -1.42907725519651   -8.76904241906523
C           0.85572983628695   -1.41090573179553   -8.14223877718059
C           2.11094570355244   -0.83339444272506   -8.69607472111182
F           3.13886344712247   -0.96355808676977   -7.84151319961569
F           2.48715437238540   -1.41840910534376   -9.84168839110175
F           1.99517944179075    0.47833811730251   -8.95832891637099
C          -2.64491273247806   -2.40908974907279   -7.92380676631004
C          -3.44487149625865   -2.76385984387986   -8.99281395674102
N          -3.17902658201799   -2.71129300173845  -10.37664063277485
O          -3.88816889202387   -3.38746945570478  -11.09731912810784
O          -2.27534918318560   -1.99876716076086  -10.77434204397710
C          -4.67891572138290   -3.32776869695952   -8.49554220629063
C          -4.63887406859199   -3.35165583162306   -7.14227865929508
C          -3.41540832093657   -2.73585479296641   -6.70981220292138
C          -3.12231214998641   -2.32421043331187   -5.42568827002231
C          -2.38665863943569   -1.15797169941863   -5.05438130292032
C          -2.54720700454421   -0.95171867348925   -3.71770593737091
C          -3.33706571861207   -2.00839092043464   -3.16215075764773
N          -3.60652777005034   -2.02777730727964   -1.78151761268921
O          -2.96560025047084   -1.26427709864808   -1.08234167568488
O          -4.46936977046423   -2.77700697577242   -1.34679843605712
C          -3.68848458123918   -2.90259816634434   -4.18600408371824
C          -4.18935480498392   -4.21334649003159   -4.20376572793392
C          -4.78249098168281   -4.92383652632376   -3.18679706499569
C          -5.18217775573757   -6.25471923329733   -3.36548071302071
N          -5.79826277652798   -7.00514872639817   -2.39518589949163
C          -6.16839037686058   -6.55626274105906   -1.07098492418345
C          -7.43584651462438   -5.70751705308498   -1.09189210578449
C          -6.09982351284510   -8.29838504905064   -2.83717561780341
O          -6.64925095383965   -9.13976525834440   -2.15580259424619
C          -5.60325305996025   -8.33834603085910   -4.20453088826332
C          -5.05056276936156   -7.08765705249611   -4.50048329724534
C          -4.53698582114076   -7.13537621637592   -5.86120339517956
O          -3.97022423242376   -6.30231713825017   -6.53831998619813
N          -4.82033151145217   -8.43647472006306   -6.29613888840711
C          -4.47969117642142   -8.86916521991356   -7.63407444825423
C          -5.70044648615677   -8.96100735467779   -8.54423208988935
C          -5.45314671859133   -9.17749844413380   -5.33176324496071
C          -5.82928502479517  -10.51808712954363   -5.50348550080428
C          -6.45759531261153  -11.22375762472553   -4.50904112953089
C          -6.91770451802686  -12.55340347383956   -4.54353188428355
C          -7.35580797897349  -13.39130699893806   -5.57954962666614
N          -7.37069996282131  -13.20844817305943   -6.97490027144589
O          -8.06504928538659  -13.97045138862111   -7.62285617590402
O          -6.70131811385266  -12.31698925814649   -7.47616794442131
C          -7.97478619731673  -14.55138223108684   -5.01220253773208
C          -7.94887905644825  -14.45969650131698   -3.65425858940384
C          -7.27221353131082  -13.25372947966431   -3.29052785029895
C          -6.87033207817109  -12.88827700945575   -2.02201647542689
C          -5.71800629827863  -12.11415258640415   -1.68111141412674
C          -5.54046016576000  -12.17588781878250   -0.33675564254030
C          -6.60115445086685  -12.95630662385935    0.25053131849758
N          -6.67732437275679  -13.08216461812787    1.65356395493131
O          -6.01287229089853  -12.29816677664908    2.30612178936874
O          -7.37419791531098  -13.95476419725000    2.14030977784453
C          -7.45466971351281  -13.39432206094154   -0.75227565633370
C          -8.74556922394792  -13.98335802482176   -0.73596041989219
C          -9.31289494880233  -14.74568657018244    0.23544284833946
C         -10.63206987625020  -15.26345371107664    0.10448911119074
O         -11.39916845341962  -14.97123277446611   -0.96845912428006
C         -12.57384861156871  -15.59091128306785   -0.82127104444216
C         -12.61084267853244  -16.30534496197377    0.34174890850466
C         -11.35346677366175  -16.10148636043720    0.94832990853811
C         -10.89454338394749  -16.67404385534248    2.24435538213523
F          -9.68355986821651  -17.24768279798817    2.14917810389834
F         -10.80515245496167  -15.74893129623307    3.21308429894091
F         -11.73211614180332  -17.61900455656600    2.69351133492238
H           1.40174823223903   -2.23463256876326   -6.14348697288892
H          -0.65836621717763   -1.03462271965458   -9.73171161350481
H          -5.47237548522900   -3.65664714239030   -9.13910786486323
H          -5.43796391906248   -3.64706486653387   -6.49214452151384
H          -1.90199593173130   -0.49033768144351   -5.73952193671111
H          -2.16757543928745   -0.13404681278554   -3.13389654904199
H          -4.05995386413622   -4.72405747439222   -5.14879984841002
H          -4.96278738108461   -4.45701964566952   -2.23106924693134
H          -5.33927041952209   -5.99570317987022   -0.63349206491666
H          -6.33877637948042   -7.46070593115952   -0.48098721204810
H          -7.28707234163567   -4.79789660987757   -1.66818413920817
H          -7.70138826535125   -5.43181145744074   -0.07582692217918
H          -8.25882607707066   -6.27028003551469   -1.52627792269036
H          -3.96566544764890   -9.83233559280341   -7.58450666636960
H          -3.78661066752357   -8.11678766879671   -8.02026648943398
H          -6.37052721489094   -9.75670935935288   -8.23008937026113
H          -5.37323565403110   -9.17100942071174   -9.55816879757836
H          -6.24154359846581   -8.01780955465928   -8.54430029985541
H          -5.59939813324489  -10.99262565065407   -6.44330715060025
H          -6.62423918393495  -10.71639452683175   -3.56675972007608
H          -8.37791038087491  -15.35110376207928   -5.60470224379458
H          -8.26438558688984  -15.22055642927099   -2.96751762520576
H          -5.04170458680208  -11.67074626267899   -2.38420052401341
H          -4.74765709701400  -11.73940711229775    0.24093437454266
H          -9.33524514278014  -13.79916374140033   -1.62547243792825
H          -8.77832605211951  -15.00307759254795    1.13692956793478
H         -13.30329462930704  -15.45755239438957   -1.59584131866206
H         -13.41477080827641  -16.90079132569209    0.72205372942041
