# ORCA input file
# SCF done       -160.650195108681          0.000474619417
! CAM-B3LYP def2-SVP def2/J RIJCOSX Grid4 TightSCF
%maxcore 5000
%tddft
    Mode sTDDFT
    Ethresh 5.0
    maxcore 5000
end

%pal
  nprocs 6
  end
* xyz 0 1
   C        1.59531         0.61287         2.77738
   C        0.33865         0.16129         2.49840
   C       -0.08897        -0.73150         1.39477
   O        0.62701        -1.46950         0.76293
   O       -1.40996        -0.64582         1.20951
   C       -1.95716        -1.48944         0.20712
   C       -0.69304         0.52982         3.38941
   N       -1.51463         0.83440         4.12980
   C        2.80584         0.48614         2.05710
   C        3.09641        -0.01786         0.79935
   C        4.44592         0.09226         0.48512
   C        5.21208         0.67558         1.51892
   S        4.25803         1.11110         2.85737
   C        6.56694         0.69453         1.11723
   C        6.66448         0.13194        -0.16724
   C        5.32996        -0.24612        -0.61479
   C        4.99158        -0.77570        -1.82509
   C        5.96175        -1.05722        -2.81046
   N        6.75179        -1.28586        -3.60960
   C        3.65789        -1.05126        -2.19792
   N        2.58302        -1.25779        -2.53814
   C        7.97057         0.08866        -0.64560
   C        8.87916         0.60878         0.26246
   S        8.09047         1.17270         1.73223
   C       10.29172         0.70155         0.11457
   C       11.11051         1.20952         1.09715
   C       12.49774         1.29503         1.01850
   C       13.21411         0.72659        -0.13328
   C       12.61021         0.20795        -1.22442
   S       10.91107         0.10779        -1.42254
   C       14.59572         0.84906         0.17703
   C       14.74161         1.45510         1.42526
   C       16.09804         1.60505         1.78906
   C       16.92651         1.11639         0.82961
   S       16.10400         0.46340        -0.54787
   C       13.44055         1.77269         1.95392
   C       13.27115         2.46673         3.17440
   C       12.16329         3.13400         3.59739
   C       12.07840         3.83252         4.82547
   C       13.00365         3.91725         5.85824
   C       12.55924         4.72944         6.89519
   C       11.28156         5.27588         6.66700
   S       10.63139         4.77397         5.16837
   C       10.92674         6.09541         7.76361
   C       11.99192         6.06135         8.69569
   C       13.04468         5.20377         8.18302
   C       14.23866         4.90511         8.77250
   C       14.60517         5.42431        10.03163
   N       14.90580         5.84437        11.05535
   C       15.18389         4.05870         8.15744
   N       15.95483         3.37485         7.65376
   C       11.74088         6.84797         9.80567
   C       10.50195         7.49023         9.74024
   S        9.63540         7.09137         8.25731
   C       10.05462         8.34713        10.76226
   C        8.90723         9.08265        10.89548
   C        7.80881         9.13962         9.92966
   O        7.76232         8.52503         8.88173
   O        6.83728         9.96204        10.33124
   C        5.72226        10.09147         9.46376
   C        8.75404         9.86596        12.05978
   N        8.65087        10.49545        13.01300
   H        1.68885         1.18415         3.69635
   H       -1.41478        -1.36413        -0.73253
   H       -2.99642        -1.19194         0.09710
   H       -1.88874        -2.53472         0.51585
   H        2.35329        -0.46117         0.16352
   H        8.26259        -0.30532        -1.60220
   H       10.62205         1.52610         2.00819
   H       13.16483        -0.18123        -2.06361
   H       16.44860         2.04372         2.70543
   H       17.99870         1.09512         0.83729
   H       14.15595         2.50570         3.79582
   H       11.29348         3.20370         2.96152
   H       13.94889         3.40766         5.84647
   H       12.41002         6.97203        10.63863
   H       10.75805         8.43490        11.58509
   H        5.25693         9.11800         9.29456
   H        6.03501        10.50426         8.50207
   H        5.03145        10.76547         9.96290
*
