# ORCA input file
# SCF done       -252.047927910173          0.000845367861
! CAM-B3LYP def2-SVP def2/J RIJCOSX Grid4 TightSCF
%maxcore 5000
%tddft
    Mode sTDDFT
    Ethresh 5.0
    maxcore 5000
end

%pal
  nprocs 6
  end
* xyz 0 1
   C        3.49148         4.68333         1.74674
   C        2.19449         4.86746         2.13782
   F        1.93362         5.28610         3.38930
   C        1.11069         4.63429         1.28028
   C        1.35620         4.20720         0.00496
   C        2.67426         3.99987        -0.45109
   C        3.76288         4.24440         0.43637
   C        5.09430         4.05041         0.00005
   C        5.32372         3.62164        -1.27860
   C        4.23188         3.36369        -2.15736
   C        2.93801         3.55105        -1.76487
   C        4.75013         2.87510        -3.45061
   O        4.12662         2.60632        -4.45097
   C        6.21619         2.71117        -3.24163
   C        6.56576         3.37137        -2.00348
   C        7.78444         3.92043        -1.69760
   C        8.88382         3.89267        -2.57966
   N        9.78099         3.91783        -3.29562
   C        8.04438         4.64255        -0.51633
   N        8.30930         5.21765         0.44108
   C        6.93372         1.93991        -4.10539
   C        8.16332         1.27565        -3.90541
   C        8.95321         0.71152        -4.89762
   C       10.06897         0.06217        -4.38239
   C       10.11538         0.09719        -2.97333
   S        8.80322         0.93747        -2.29514
   C       11.26638        -0.59979        -2.54022
   C       11.95652        -1.07536        -3.66813
   C       11.22666        -0.67414        -4.86322
   C       11.55844        -0.93987        -6.15850
   C       12.71619        -1.66947        -6.50367
   N       13.65309        -2.26502        -6.78935
   C       10.76124        -0.51194        -7.24176
   N       10.11335        -0.17767        -8.12630
   C       13.11169        -1.78334        -3.33684
   C       13.30432        -1.84594        -1.96892
   S       12.04023        -1.01848        -1.07564
   C       14.35765        -2.48831        -1.26480
   C       14.54765        -2.51485         0.08978
   C       15.68090        -3.25916         0.48688
   C       16.38504        -3.78829        -0.62555
   S       15.59701        -3.37727        -2.12862
   C       17.52640        -4.56385        -0.50422
   C       18.20553        -5.13505        -1.67396
   C       18.56203        -4.32772        -2.75001
   C       19.20192        -4.86737        -3.84911
   C       19.49817        -6.22301        -3.90957
   C       19.13191        -7.02868        -2.83636
   C       18.49636        -6.49638        -1.73289
   C       20.17652        -6.81543        -5.10479
   C       17.99382        -4.78928         0.80405
   C       17.29762        -4.24384         1.91383
   C       16.14051        -3.49461         1.79503
   C       15.41889        -2.98778         2.96942
   C       16.08243        -2.24958         3.94412
   C       15.40198        -1.77872         5.05092
   C       14.04821        -2.03660         5.22022
   C       13.38972        -2.78150         4.24700
   C       14.06066        -3.24961         3.13558
   C       13.30605        -1.54165         6.42246
   S       18.05769        -4.68736         3.41912
   C       19.30279        -5.57426         2.56222
   C       19.13507        -5.52292         1.20450
   C       20.32155        -6.25395         3.28637
   C       21.29808        -7.09298         2.77830
   C       22.10915        -7.61500         3.78483
   C       21.75076        -7.16353         5.06759
   S       20.41409        -6.10127         5.02971
   C       22.62115        -7.75319         6.01605
   C       23.52852        -8.58744         5.32939
   C       23.24079        -8.52082         3.90742
   C       23.90574        -9.16426         2.90497
   C       24.99829       -10.01522         3.17446
   N       25.87957       -10.71030         3.40941
   C       23.53468        -9.02761         1.55131
   N       23.22208        -8.92068         0.45328
   C       24.43885        -9.20824         6.17323
   C       24.24736        -8.85841         7.50348
   S       22.88498        -7.75482         7.69479
   C       24.92390        -9.30003         8.65756
   C       26.12079        -9.94316         8.77666
   C       26.39450       -10.68425        10.04140
   O       25.76343       -10.60668        11.07083
   C       27.54284       -11.55679         9.74015
   C       28.11193       -12.52626        10.51448
   C       29.19610       -13.27093         9.99898
   C       29.66558       -12.99927         8.68062
   C       30.74008       -13.75270         8.16966
   C       31.30987       -14.72217         8.94742
   C       30.86397       -15.00295        10.24616
   C       29.82087       -14.28221        10.75731
   F       32.33720       -15.44202         8.46202
   C       29.06055       -11.98365         7.90327
   C       28.02046       -11.26717         8.42959
   C       27.23628       -10.16087         7.88311
   C       27.65057        -9.33945         6.86578
   C       27.00194        -8.14122         6.51310
   N       26.51175        -7.14714         6.21246
   C       28.83112        -9.54539         6.12150
   N       29.78203        -9.66283         5.48998
   H        4.30155         4.87667         2.43250
   H        0.10871         4.79661         1.64458
   H        0.53761         4.02104        -0.67383
   H        5.90076         4.23476         0.69232
   H        2.12405         3.35817        -2.44746
   H        6.44494         1.73141        -5.05273
   H        8.71871         0.80636        -5.94259
   H       13.78982        -2.23636        -4.03756
   H       13.89939        -2.00516         0.78068
   H       18.35978        -3.26741        -2.71348
   H       19.47788        -4.22334        -4.67133
   H       19.34888        -8.08671        -2.86816
   H       18.19809        -7.14096        -0.91835
   H       20.64371        -6.04348        -5.71084
   H       19.44815        -7.34046        -5.72337
   H       20.93445        -7.53427        -4.80027
   H       17.13152        -2.02370         3.82203
   H       15.93252        -1.20007         5.79309
   H       12.33749        -2.99765         4.36605
   H       13.53892        -3.84502         2.39998
   H       13.92280        -0.86876         7.01232
   H       13.01087        -2.38054         7.05249
   H       12.40010        -1.01693         6.12358
   H       19.81269        -5.98114         0.50804
   H       21.39903        -7.31280         1.73183
   H       25.17718        -9.92149         5.85548
   H       24.38772        -9.17897         9.59473
   H       27.73933       -12.72344        11.50842
   H       31.11179       -13.56157         7.17520
   H       31.35227       -15.78004        10.81254
   H       29.45917       -14.48018        11.75507
   H       29.42796       -11.80681         6.90491
*
