# ORCA input file
# SCF done       -291.118977824136          0.000281903994
! CAM-B3LYP def2-SVP def2/J RIJCOSX Grid4 TightSCF
%maxcore 5000
%tddft
    Mode sTDDFT
    Ethresh 5.0
    maxcore 5000
end

%pal
  nprocs 6
  end
* xyz 0 1
   C      -14.93444       -11.32213        -4.99030
   C      -15.91106       -10.43150        -4.57204
   C      -15.57263        -9.20897        -4.00773
   C      -14.24597        -8.83950        -3.84955
   C      -13.26036        -9.72166        -4.26226
   C      -13.60240       -10.96969        -4.83292
   C      -12.38156       -11.69217        -5.16083
   C      -12.29546       -12.85928        -5.86544
   C      -13.41003       -13.55672        -6.38022
   N      -14.27275       -14.16998        -6.82305
   C      -11.09009       -13.50455        -6.21860
   N      -10.15062       -14.07603        -6.54746
   C      -11.27503       -10.92190        -4.58892
   C      -11.81214        -9.60202        -4.25176
   C      -11.10017        -8.43551        -4.21562
   C       -9.72860        -8.35653        -4.53474
   N       -8.63982        -8.24701        -4.87850
   C      -11.68928        -7.17122        -4.00610
   N      -12.13869        -6.12843        -3.84032
   C      -10.04126       -11.40757        -4.31068
   C       -9.08401       -10.82682        -3.39484
   C       -7.72037       -10.83230        -3.69847
   C       -6.81357       -10.26210        -2.83164
   C       -7.22524        -9.75583        -1.60108
   C       -8.57217        -9.82752        -1.26157
   C       -9.49559       -10.31718        -2.15996
   C       -6.22436        -9.15288        -0.68577
   C       -5.63826       -10.05020         0.31854
   C       -5.39216        -9.59975         1.61569
   C       -4.86279       -10.45057         2.56587
   C       -4.57698       -11.76759         2.24383
   C       -4.83776       -12.23112         0.96561
   C       -5.37099       -11.38366         0.01248
   C       -5.91992        -7.85043        -0.83006
   C       -4.81883        -7.16463        -0.13994
   C       -3.55303        -7.74045        -0.05587
   C       -2.52305        -7.07345         0.57814
   C       -2.74233        -5.82768         1.14225
   C       -3.99369        -5.24183         1.05275
   C       -5.02179        -5.89789         0.40302
   C       -6.72881        -7.01415        -1.74584
   C       -8.04513        -6.71158        -1.41215
   C       -8.82643        -5.95021        -2.25536
   C       -8.31759        -5.48647        -3.46572
   C       -6.99378        -5.77325        -3.78710
   C       -6.20370        -6.51510        -2.93096
   C       -9.18300        -4.73356        -4.38153
   C      -10.03960        -3.74706        -3.89998
   C      -10.87520        -3.06202        -4.75619
   C      -10.87605        -3.33949        -6.12151
   C      -10.03656        -4.34360        -6.60066
   C       -9.19660        -5.02403        -5.74434
   C      -11.77481        -2.59306        -7.01712
   C      -13.16019        -2.47483        -6.53492
   C      -13.78351        -3.57571        -5.94833
   C      -15.07969        -3.48031        -5.47925
   C      -15.76913        -2.28284        -5.57299
   C      -15.14919        -1.17648        -6.13045
   C      -13.85555        -1.26905        -6.60661
   C      -11.35526        -2.05386        -8.18513
   C      -12.29263        -1.46414        -9.15734
   C      -12.00950        -0.23220        -9.74337
   C      -12.87644         0.32294       -10.66567
   C      -14.03138        -0.35005       -11.02785
   C      -14.31189        -1.58454       -10.46521
   C      -13.45069        -2.13893        -9.53796
   C       -9.94146        -2.04757        -8.58764
   C       -9.59469        -2.29348        -9.91629
   C       -8.27140        -2.33692       -10.30618
   C       -7.25363        -2.15873        -9.37433
   C       -7.59714        -1.87379        -8.05498
   C       -8.91913        -1.79553        -7.67208
   C       -5.84244        -2.28869        -9.76432
   C       -5.31281        -1.55872       -10.82441
   C       -3.98192        -1.68282       -11.16742
   C       -3.14286        -2.55741       -10.47485
   C       -3.68939        -3.32148        -9.44242
   C       -5.01119        -3.17278        -9.08018
   C       -1.73151        -2.68158       -10.85815
   C       -1.45343        -2.60050       -12.30195
   C       -2.23188        -3.31916       -13.20734
   C       -1.98222        -3.23972       -14.56437
   C       -0.96323        -2.43001       -15.03802
   C       -0.19666        -1.69680       -14.14673
   C       -0.43720        -1.78060       -12.78887
   C       -0.74168        -2.86744        -9.95057
   C        0.64256        -3.19355       -10.33276
   C        1.70479        -2.57738        -9.67152
   C        3.00977        -2.87643       -10.01458
   C        3.27476        -3.80295       -11.00929
   C        2.22565        -4.43837       -11.65365
   C        0.91917        -4.13891       -11.31883
   C       -0.96037        -2.76224        -8.50437
   C       -0.44698        -3.74178        -7.65091
   C       -0.62842        -3.65463        -6.29114
   C       -1.25545        -2.53701        -5.72728
   C       -1.77055        -1.55488        -6.58445
   C       -1.63986        -1.67507        -7.94737
   C       -1.38871        -2.46083        -4.29688
   C       -1.36247        -1.34805        -3.51844
   C       -1.83251        -1.29108        -2.13439
   C       -2.05291        -2.34371        -1.28833
   C       -1.85921        -3.70724        -1.59829
   N       -1.72515        -4.83419        -1.77314
   C       -2.46174        -2.19594         0.05386
   N       -2.77638        -2.14095         1.15639
   C       -2.02332         0.11643        -1.81485
   C       -1.54120         0.90076        -2.88769
   C       -1.63287         2.28281        -2.84833
   C       -2.20231         2.87785        -1.73321
   C       -2.66814         2.11027        -0.67479
   C       -2.58560         0.72677        -0.70379
   C       -0.97780         0.01268        -3.89245
   C       -0.06077         0.37370        -4.84040
   C        0.32261         1.70911        -5.08898
   N        0.66301         2.77441        -5.34671
   C        0.69878        -0.51980        -5.62638
   N        1.41363        -1.16508        -6.25093
   H      -15.21548       -12.26890        -5.42142
   H      -16.95088       -10.69720        -4.68548
   H      -16.35228        -8.53614        -3.68477
   H      -13.99272        -7.89129        -3.40335
   H       -9.75139       -12.35758        -4.74065
   H       -7.39205       -11.23365        -4.64533
   H       -5.76942       -10.21036        -3.10239
   H       -8.89728        -9.48443        -0.29058
   H      -10.54301       -10.35186        -1.89195
   H       -5.62616        -8.57883         1.87748
   H       -4.67562       -10.08565         3.56520
   H       -4.16032       -12.43059         2.98746
   H       -4.62655       -13.25929         0.70950
   H       -5.57082       -11.75435        -0.98273
   H       -3.38050        -8.71032        -0.49912
   H       -1.54364        -7.52517         0.63020
   H       -1.93961        -5.30755         1.64363
   H       -4.16367        -4.26714         1.48599
   H       -5.99782        -5.43865         0.32827
   H       -8.45150        -7.06886        -0.47670
   H       -9.85267        -5.73509        -1.99291
   H       -6.58109        -5.40054        -4.71320
   H       -5.17525        -6.72711        -3.18560
   H      -10.03732        -3.50706        -2.84676
   H      -11.52944        -2.29219        -4.37225
   H      -10.05344        -4.59424        -7.65178
   H       -8.56481        -5.81495        -6.12187
   H      -13.24546        -4.50922        -5.86395
   H      -15.55222        -4.34404        -5.03412
   H      -16.78209        -2.20846        -5.20515
   H      -15.67565        -0.23492        -6.19071
   H      -13.37168        -0.39882        -7.02509
   H      -11.10839         0.29379        -9.45998
   H      -12.64986         1.28361       -11.10531
   H      -14.70769         0.08324       -11.74991
   H      -15.20548        -2.11908       -10.75328
   H      -13.66640        -3.10628        -9.10820
   H      -10.37439        -2.47310       -10.64294
   H       -8.01810        -2.54576       -11.33585
   H       -6.81465        -1.69670        -7.33056
   H       -9.16593        -1.54091        -6.65244
   H       -5.94831        -0.87335       -11.36663
   H       -3.57712        -1.08781       -11.97370
   H       -3.07510        -4.04882        -8.93287
   H       -5.42076        -3.76733        -8.27620
   H       -3.02537        -3.95317       -12.83723
   H       -2.58560        -3.81024       -15.25539
   H       -0.76999        -2.36697       -16.09862
   H        0.59164        -1.05529       -14.51227
   H        0.15544        -1.20100       -12.09646
   H        1.50471        -1.85724        -8.89099
   H        3.82221        -2.38542        -9.49991
   H        4.29492        -4.03579       -11.27659
   H        2.42643        -5.17424       -12.41862
   H        0.10528        -4.64927       -11.81245
   H        0.07690        -4.58668        -8.07323
   H       -0.24225        -4.42486        -5.64004
   H       -2.30695        -0.71240        -6.17016
   H       -2.04754        -0.91518        -8.59748
   H       -1.57096        -3.40939        -3.80881
   H       -1.28375         2.88916        -3.66822
   H       -2.28543         3.95304        -1.69130
   H       -3.10677         2.59506         0.18393
   H       -2.96063         0.14722         0.12336
*
