# ORCA input file
# SCF done       -157.095369615501          0.000771534707
! CAM-B3LYP def2-SVP def2/J RIJCOSX Grid4 TightSCF
%maxcore 5000
%tddft
    Mode sTDDFT
    Ethresh 5.0
    maxcore 5000
end

%pal
  nprocs 6
  end
* xyz 0 1
   C        0.10454        -3.85341         6.22222
   C        1.28115        -3.23160         5.93749
   C        1.08881        -2.14592         5.06037
   C       -0.25172        -1.98115         4.70170
   S       -1.26634        -3.14001         5.43322
   C       -0.35227        -0.86746         3.81350
   C        0.92324        -0.33015         3.63223
   C        1.87620        -1.12083         4.39633
   C        3.22955        -0.94464         4.45261
   C        3.87518         0.08674         3.74194
   N        4.40870         0.92085         3.16172
   C        4.06997        -1.78314         5.21224
   N        4.76256        -2.46183         5.82531
   C        0.92485         0.79091         2.78679
   C       -0.33420         1.10106         2.33192
   S       -1.54652        -0.01435         2.94554
   C       -0.71429         2.13628         1.40874
   C        0.04283         2.62020         0.35649
   C        1.42332         2.29112        -0.08305
   N       -0.72872         3.51068        -0.32518
   C       -1.96876         3.60960         0.24100
   C       -3.00036         4.53608        -0.29382
   C       -1.99893         2.77181         1.32964
   C       -3.08310         2.56697         2.27116
   C       -2.88363         2.62232         3.59405
   C       -3.84347         2.25900         4.60781
   S       -4.98204         0.96679         4.11065
   C       -4.78520        -0.10417         5.48888
   C       -4.72576        -1.45922         5.41809
   S       -4.57914        -2.17443         6.97700
   C       -4.56289        -0.62571         7.72911
   C       -4.68748         0.37735         6.82155
   S       -4.74270         2.08826         7.22263
   C       -3.80570         2.76055         5.86287
   C       -3.02444         3.90715         6.25876
   C       -2.71238         4.93086         5.44584
   C       -1.96247         6.09884         5.82505
   C       -1.12779         6.81033         4.98688
   C       -0.75851         6.58438         3.56473
   N       -0.57076         7.81739         5.71800
   C       -1.02544         7.79607         7.00143
   C       -0.61099         8.83821         7.97629
   C       -1.90459         6.73156         7.11708
   C       -2.72507         6.36168         8.23122
   C       -2.51387         6.64086         9.53174
   C       -3.39155         6.22542        10.57590
   C       -3.26774         6.50380        11.92267
   C       -4.29618         5.93095        12.67818
   C       -5.20379         5.20719        11.89889
   S       -4.80376         5.23189        10.23891
   C       -6.20372         4.66479        12.75789
   C       -5.92257         5.05184        14.07255
   C       -4.71870         5.86120        14.07203
   C       -4.10866         6.44317        15.14570
   C       -4.60956         6.31425        16.45728
   N       -5.00973         6.21479        17.52770
   C       -2.93827         7.21825        15.01726
   N       -1.98554         7.84995        14.91997
   C       -6.86701         4.55648        14.99335
   C       -7.82560         3.81777        14.37158
   S       -7.60909         3.70321        12.65305
   H       -0.05715        -4.70151         6.85658
   H        2.23058        -3.53833         6.33706
   H        1.79653         1.36918         2.54533
   H        1.63385         1.23818         0.09117
   H        2.16274         2.87564         0.46638
   H        1.54334         2.50282        -1.14395
   H       -0.43057         4.01692        -1.14310
   H       -2.67999         5.57464        -0.19841
   H       -3.92778         4.41035         0.25679
   H       -3.18908         4.33658        -1.34891
   H       -4.06700         2.35446         1.87357
   H       -1.90952         2.91572         3.97016
   H       -4.78209        -2.07439         4.54382
   H       -4.48351        -0.54225         8.79366
   H       -2.72716         3.92748         7.29759
   H       -3.03292         4.89706         4.41266
   H        0.20502         6.07736         3.48853
   H       -0.68643         7.53262         3.03276
   H       -1.50285         5.96150         3.07605
   H        0.08871         8.48861         5.35771
   H       -0.21132         9.70602         7.45433
   H        0.16049         8.46227         8.64979
   H       -1.46182         9.15247         8.57760
   H       -3.61252         5.79601         7.97331
   H       -1.63489         7.17735         9.85555
   H       -2.46637         7.09719        12.32408
   H       -6.84293         4.73307        16.05316
   H       -8.66491         3.32022        14.81427
*
