# ORCA input file
# SCF done       -147.910877439003          0.000713800409
! CAM-B3LYP def2-SVP def2/J RIJCOSX Grid4 TightSCF
%maxcore 5000
%tddft
    Mode sTDDFT
    Ethresh 5.0
    maxcore 5000
end

%pal
  nprocs 6
  end
* xyz 0 1
   C        1.64959        10.74760         1.68132
   C        1.23733         9.72813         2.45794
   C       -0.12906         9.34178         2.27693
   S       -0.88777        10.34233         1.05421
   C        0.64450        11.28729         0.79112
   O        0.71224        12.18301        -0.00219
   C       -0.74012         8.33827         2.96997
   C       -2.06860         7.89027         2.86317
   C       -2.62973         6.86827         3.62431
   C       -3.96045         6.64020         3.30655
   C       -4.43053         7.49914         2.28099
   S       -3.22762         8.57930         1.72803
   C       -5.77874         7.19567         2.02796
   C       -6.17767         6.14386         2.88717
   C       -5.04516         5.77746         3.72936
   C       -5.01163         4.85304         4.73411
   C       -6.11852         4.08622         5.14505
   N       -6.98851         3.44908         5.53860
   C       -3.84093         4.62235         5.48986
   N       -2.89923         4.43831         6.11734
   C       -7.49173         5.75565         2.70915
   C       -8.14021         6.50339         1.71795
   S       -7.05447         7.70793         1.01146
   C       -9.45448         6.44422         1.24394
   C      -10.44159         5.55362         1.61472
   C      -11.77625         5.53757         1.14624
   C      -12.55238         4.54422         1.67862
   C      -11.86363         3.72063         2.58541
   S      -10.20763         4.24852         2.75141
   C      -12.26827         2.61819         3.32791
   C      -13.51743         1.99199         3.48498
   C      -13.49161         0.93012         4.34899
   C      -12.22045         0.65838         4.90589
   S      -11.05827         1.80793         4.28460
   C      -11.90237        -0.28997         5.85834
   C      -10.61594        -0.52167         6.36029
   C       -9.38742        -0.10137         5.84197
   C       -8.32794        -0.42335         6.66399
   C       -8.70864        -1.11508         7.83632
   S      -10.40003        -1.39283         7.88531
   C       -7.55566        -1.33400         8.61184
   C       -6.44186        -0.76877         7.94153
   C       -6.89102        -0.19598         6.68970
   C       -6.14330         0.41902         5.72751
   C       -4.75950         0.63891         5.88363
   N       -3.63427         0.82364         6.00894
   C       -6.68118         0.84036         4.49274
   N       -7.07644         1.14020         3.45831
   C       -5.24696        -0.92943         8.63088
   C       -5.40858        -1.60926         9.83042
   S       -7.10386        -2.05794        10.08895
   C       -4.49864        -2.00574        10.83254
   C       -3.15530        -1.79013        10.94063
   S       -2.29528        -2.47382        12.31939
   C       -0.71389        -1.80381        11.75604
   O        0.31355        -1.97562        12.35062
   C       -0.96445        -1.07487        10.52814
   C       -2.24264        -1.07088        10.10571
   H        2.63593        11.17623         1.67439
   H        1.85703         9.21471         3.17336
   H       -0.13802         7.81254         3.70153
   H       -2.07164         6.33086         4.36958
   H       -7.96489         4.97279         3.27071
   H       -9.72850         7.18041         0.49916
   H      -12.12687         6.26101         0.43139
   H      -13.58757         4.38569         1.43443
   H      -14.40022         2.33983         2.97879
   H      -14.35249         0.33632         4.60142
   H      -12.71818        -0.85316         6.29096
   H       -9.27160         0.37863         4.88998
   H       -4.30367        -0.57130         8.26699
   H       -4.94393        -2.57666        11.63846
   H       -0.14235        -0.58804        10.03359
   H       -2.56323        -0.55956         9.21701
*
