# ORCA input file
# SCF done       -193.138895946849          0.000390786681
! CAM-B3LYP def2-SVP def2/J RIJCOSX Grid4 TightSCF
%maxcore 5000
%tddft
    Mode sTDDFT
    Ethresh 5.0
    maxcore 5000
end

%pal
  nprocs 6
  end
* xyz 0 1
   C        0.84067         0.76354         2.38554
   O        1.86561         1.21742         1.92570
   C       -0.46476         1.40915         2.44764
   C       -1.42066         0.57765         3.01654
   C       -2.69147         1.18126         3.08281
   C       -2.65799         2.44152         2.56237
   S       -1.10526         2.92392         1.98825
   C       -0.79421        -0.67612         3.38051
   C       -1.43231        -1.69736         4.03353
   C       -2.80224        -1.61778         4.36587
   N       -3.91518        -1.57993         4.64145
   C       -0.85213        -2.90520         4.47017
   N       -0.44884        -3.90443         4.86791
   C        0.60336        -0.59206         2.96813
   C        1.46985        -1.64478         3.02713
   C        2.84829        -1.73041         2.73602
   C        3.82317        -0.76872         2.50832
   C        5.07681        -1.33108         2.30600
   C        5.06962        -2.74293         2.36753
   S        3.52645        -3.36668         2.70410
   C        6.38286        -3.21031         2.12197
   C        7.22337        -2.10260         1.91500
   C        6.43296        -0.88491         2.03419
   C        6.88708         0.39599         1.93193
   C        6.06098         1.52767         2.11094
   N        5.42529         2.46725         2.27233
   C        8.24254         0.68195         1.65953
   N        9.34364         0.91073         1.43634
   C        8.54590        -2.46412         1.66811
   C        8.71718        -3.83783         1.67950
   S        7.22064        -4.69651         2.00521
   C        9.92210        -4.55362         1.46676
   C       10.09683        -5.92531         1.42486
   C       11.42736        -6.27366         1.19601
   C       12.27067        -5.15616         1.06780
   S       11.42831        -3.67990         1.22066
   C       13.59485        -5.61130         0.84817
   C       13.58976        -7.01692         0.83165
   C       12.22762        -7.48000         1.04949
   C       11.79324        -8.77098         1.10801
   C       10.43750        -9.09478         1.32864
   N        9.33568        -9.35571         1.50779
   C       12.67214        -9.86419         0.95356
   N       13.38823       -10.75076         0.82944
   C       14.85704        -7.56138         0.62656
   C       15.82447        -6.58156         0.49352
   S       15.15539        -4.96016         0.61675
   C       17.21702        -6.75612         0.29289
   C       18.18352        -5.76754         0.22670
   C       19.45793        -6.29846         0.04065
   C       19.46162        -7.70200        -0.04313
   S       17.89498        -8.36633         0.11244
   C       20.79639        -8.14213        -0.22961
   C       21.63635        -7.01076        -0.25143
   C       20.82421        -5.81779        -0.09761
   C       21.25623        -4.52450        -0.11607
   C       20.37163        -3.43574         0.03199
   N       19.64729        -2.55673         0.16221
   C       22.62131        -4.20909        -0.28435
   N       23.73487        -3.97027        -0.41736
   C       22.97350        -7.33179        -0.44874
   C       23.16971        -8.69632        -0.59266
   S       21.66145        -9.59213        -0.43802
   C       24.37915        -9.40487        -0.77788
   C       25.57910        -8.94777        -1.22304
   C       26.79939        -9.77596        -0.93908
   O       26.81419       -10.91578        -0.53778
   C       27.90424        -8.86768        -1.21446
   C       27.44655        -7.65917        -1.72955
   C       26.00377        -7.72008        -1.87516
   C       25.27981        -6.89001        -2.68978
   C       25.87228        -5.78611        -3.34090
   N       26.33662        -4.88586        -3.87839
   C       23.93116        -7.08207        -3.04239
   N       22.84180        -7.21085        -3.38164
   C       28.49016        -6.75682        -2.00670
   C       29.69987        -7.30111        -1.68860
   S       29.60658        -8.90667        -1.06775
   H       -3.57698         0.72378         3.48283
   H       -3.47628         3.13035         2.48302
   H        1.04471        -2.59186         3.34004
   H        3.60523         0.28346         2.48611
   H        9.35364        -1.77865         1.48436
   H        9.28624        -6.61984         1.55471
   H       15.08169        -8.61184         0.57859
   H       17.95484        -4.72059         0.31590
   H       23.77926        -6.62091        -0.44069
   H       24.37791       -10.44496        -0.46541
   H       28.36437        -5.76685        -2.40396
   H       30.66343        -6.84122        -1.79082
*
