# ORCA input file
# SCF done       -193.384969447337          0.000634252474
! CAM-B3LYP def2-SVP def2/J RIJCOSX Grid4 TightSCF
%maxcore 5000
%tddft
    Mode sTDDFT
    Ethresh 5.0
    maxcore 5000
end

%pal
  nprocs 6
  end
* xyz 0 1
   C       -3.53074         3.26365         0.85280
   C       -3.36539         4.04225         1.96358
   F       -3.24077         5.37174         1.84208
   C       -3.32385         3.46179         3.24665
   F       -3.16043         4.25077         4.31877
   C       -3.44814         2.10962         3.40173
   C       -3.61997         1.28057         2.27644
   C       -3.66310         1.86604         0.97826
   C       -3.83947         1.05493        -0.16656
   C       -3.97111        -0.30064        -0.01731
   C       -3.92140        -0.87418         1.28137
   C       -3.75086        -0.12010         2.40554
   C       -4.07828        -2.33894         1.17998
   O       -4.04938        -3.11325         2.11447
   C       -4.22484        -2.62937        -0.26166
   C       -4.17710        -1.37440        -0.98730
   C       -4.34770        -1.18020        -2.33623
   C       -4.61750        -2.17312        -3.30045
   N       -4.85321        -2.90513        -4.15469
   C       -4.29796         0.08184        -2.96402
   N       -4.26672         1.07290        -3.54347
   C       -4.31916        -3.85775        -0.87242
   C       -4.48551        -5.14599        -0.34684
   C       -4.71297        -5.62622         0.94031
   C       -4.89385        -6.99824         0.96850
   C       -4.79728        -7.60331        -0.31409
   S       -4.49151        -6.46669        -1.54002
   C       -5.00621        -8.98572        -0.17172
   C       -5.24204        -9.27427         1.18700
   C       -5.17642        -8.03083         1.94555
   C       -5.36283        -7.88938         3.28999
   C       -5.63087        -8.99830         4.11953
   N       -5.84565        -9.90217         4.79233
   C       -5.32068        -6.64543         3.95586
   N       -5.31182        -5.65676         4.53571
   C       -5.49045       -10.61867         1.42768
   C       -5.44803       -11.37673         0.26365
   S       -5.08391       -10.39418        -1.14888
   C       -5.68659       -12.76425         0.15034
   N       -5.59591       -13.44408        -1.04723
   C       -5.91276       -14.74706        -0.82684
   C       -6.06595       -15.98574        -1.43743
   C       -6.46439       -16.86996        -0.42426
   N       -6.54698       -16.18682         0.77133
   C       -6.21328       -14.88928         0.55486
   C       -6.06869       -13.65234         1.16755
   C       -6.78649       -18.24781        -0.48177
   C       -6.71222       -19.03646        -1.58263
   C       -7.07666       -20.40513        -1.59340
   S       -7.72449       -21.17602        -0.17018
   C       -7.88950       -22.69596        -1.00667
   C       -7.43865       -22.59433        -2.31477
   C       -7.00070       -21.30283        -2.64861
   C       -6.49214       -20.94453        -4.00875
   C       -6.85172       -22.01268        -5.03984
   C       -6.54163       -23.40849        -4.49998
   C       -5.07862       -23.58044        -4.17382
   O       -4.18801       -22.87296        -4.54731
   C       -7.42168       -23.72963        -3.28865
   C       -8.45992       -23.78726        -0.30299
   C       -8.84223       -23.77472         1.02916
   C       -9.40852       -24.98215         1.42994
   C       -9.46493       -25.93025         0.40135
   S       -8.81829       -25.33251        -1.06317
   C      -10.05892       -27.11713         0.91347
   C      -10.37924       -26.91132         2.26183
   C       -9.98581       -25.56908         2.63645
   C      -10.12490       -24.96476         3.85217
   C      -10.70517       -25.62233         4.95680
   N      -11.17663       -26.15199         5.85816
   C       -9.70049       -23.64026         4.08491
   N       -9.35818       -22.56262         4.27775
   C      -10.98101       -28.04204         2.84938
   C      -11.10237       -29.06061         1.95594
   S      -10.49142       -28.67887         0.37718
   H       -3.56155         3.72409        -0.12239
   H       -3.41457         1.67998         4.39066
   H       -3.86450         1.53165        -1.13269
   H       -3.71954        -0.58713         3.37817
   H       -4.26814        -3.84844        -1.95488
   H       -4.73437        -4.97718         1.79753
   H       -5.69536       -11.04564         2.39095
   H       -5.33841       -13.02212        -1.92310
   H       -5.92195       -16.23640        -2.46830
   H       -6.80973       -16.60365         1.64804
   H       -6.21842       -13.39873         2.19668
   H       -7.12490       -18.69465         0.44567
   H       -6.35547       -18.62540        -2.51507
   H       -5.40453       -20.83674        -3.96514
   H       -6.90490       -19.98241        -4.31959
   H       -6.28138       -21.83660        -5.95241
   H       -7.91509       -21.95501        -5.28062
   H       -6.74573       -24.15677        -5.27771
   H       -4.87426       -24.47592        -3.55139
   H       -7.05655       -24.63665        -2.79800
   H       -8.44447       -23.93441        -3.62158
   H       -8.70597       -22.91435         1.65910
   H      -11.30669       -28.10228         3.87172
   H      -11.51911       -30.03412         2.11900
*
