# ORCA input file
# SCF done       -182.198731691770          0.000850578280
! CAM-B3LYP def2-SVP def2/J RIJCOSX Grid4 TightSCF
%maxcore 5000
%tddft
    Mode sTDDFT
    Ethresh 5.0
    maxcore 5000
end

%pal
  nprocs 6
  end
* xyz 0 1
   C       -0.43914       -11.10495         0.18046
   O       -0.06020       -12.03907        -0.49966
   N       -1.76943       -10.97718         0.52395
   C       -2.71229       -11.98535         0.06886
   C       -2.30333        -9.95816         1.28653
   O       -3.47813        -9.92738         1.56703
   N       -1.43136        -8.97348         1.69796
   C       -2.02502        -7.88690         2.46119
   C       -0.07477        -8.91994         1.42065
   O        0.57146        -7.94956         1.76454
   C        0.46832       -10.06605         0.69682
   C        1.79033       -10.28134         0.39343
   C        2.98896        -9.62674         0.72197
   C        3.29898        -8.56085         1.55814
   C        4.65747        -8.28700         1.59009
   C        5.42161        -9.14596         0.75550
   S        4.45177       -10.29363        -0.03987
   C        6.77152        -8.76295         0.83379
   C        6.88016        -7.66998         1.72422
   C        5.54974        -7.33790         2.22326
   C        5.21512        -6.33302         3.08366
   C        6.14500        -5.42483         3.62659
   N        6.85281        -4.64613         4.08573
   C        3.88729        -6.08350         3.50175
   N        2.82835        -5.83626         3.86269
   C        8.17386        -7.20701         1.87178
   C        9.09017        -7.92063         1.08981
   S        8.28866        -9.20003         0.17227
   C       10.46992        -7.75020         0.92327
   C       11.28196        -6.84085         1.56856
   C       12.66529        -6.63778         1.34313
   C       13.22742        -5.65580         2.11123
   C       12.31831        -5.04418         2.99318
   S       10.72920        -5.74611         2.81122
   C       12.46359        -4.02783         3.92709
   C       13.54723        -3.19436         4.26443
   C       13.24861        -2.27519         5.23214
   C       11.91961        -2.34387         5.71743
   S       11.06977        -3.63375         4.89582
   C       11.29983        -1.50059         6.61493
   C        9.97147        -1.64376         7.04738
   C        9.15423        -2.77215         6.96755
   C        7.85745        -2.51429         7.36767
   C        7.64812        -1.18234         7.78657
   S        9.09055        -0.26150         7.71009
   C        6.28552        -1.01853         8.11277
   C        5.62830        -2.25926         7.88436
   C        6.59766        -3.23648         7.42608
   C        6.39633        -4.54672         7.10783
   C        5.12526        -5.15657         7.15799
   N        4.10476        -5.67834         7.18794
   C        7.44677        -5.41163         6.73045
   N        8.28848        -6.14542         6.46784
   C        4.27789        -2.19214         8.15560
   C        3.87579        -0.92116         8.58920
   S        5.23124         0.20629         8.65910
   C        2.54375        -0.64009         8.90691
   C        1.90178         0.50114         9.33164
   C        2.56674         1.76472         9.55825
   O        3.77113         1.93685         9.40642
   N        1.77015         2.81166         9.96686
   C        0.40347         2.74181        10.17623
   O       -0.22659         3.70772        10.53537
   N       -0.19520         1.52242         9.95480
   C        0.45718         0.37036         9.54867
   O       -0.15183        -0.66760         9.38830
   C       -1.63039         1.46980        10.18009
   C        2.37837         4.10922        10.20946
   H       -2.15942       -12.71367        -0.51888
   H       -3.48769       -11.51613        -0.53560
   H       -3.18055       -12.46447         0.92801
   H       -2.58331        -8.29958         3.29994
   H       -2.70843        -7.31874         1.83030
   H       -1.22015        -7.24598         2.81243
   H        1.93102       -11.16653        -0.22435
   H        2.54238        -8.02081         2.09726
   H        8.44319        -6.38520         2.50680
   H       10.95036        -8.39880         0.20216
   H       13.20412        -7.21841         0.61520
   H       14.26280        -5.36845         2.06718
   H       14.50400        -3.27557         3.77998
   H       13.94491        -1.54675         5.60876
   H       11.85000        -0.63315         6.95263
   H        9.50152        -3.74403         6.67594
   H        3.58369        -3.00676         8.04827
   H        1.87403        -1.48919         8.79204
   H       -2.12436         2.22297         9.56743
   H       -1.84845         1.67255        11.22836
   H       -1.97001         0.47303         9.90924
   H        3.42731         4.04352         9.93233
   H        2.28090         4.37132        11.26264
   H        1.87016         4.86552         9.61297
*
