# ORCA input file
# SCF done       -198.013246903887          0.000505089030
! CAM-B3LYP def2-SVP def2/J RIJCOSX Grid4 TightSCF
%maxcore 5000
%tddft
    Mode sTDDFT
    Ethresh 5.0
    maxcore 5000
end

%pal
  nprocs 6
  end
* xyz 0 1
   C       -2.69958        -3.82264        -1.30613
   C       -3.60407        -2.76808        -1.40643
   C       -5.05030        -3.01579        -1.72626
   O       -5.92778        -2.33671        -1.27621
   O       -5.31112        -4.05003        -2.53503
   C       -3.19277        -1.45020        -1.14709
   C       -4.08689        -0.35659        -1.27376
   N       -4.71963         0.59143        -1.38326
   C       -1.87067        -1.17757        -0.78002
   C       -0.98907        -2.23153        -0.68159
   C       -1.38717        -3.55309        -0.95404
   C       -0.22639        -4.43250        -0.81657
   C       -0.10511        -5.66124        -1.41460
   C       -1.16998        -6.29418        -2.08362
   N       -2.03401        -6.83091        -2.61718
   C        1.10899        -6.37217        -1.52542
   N        2.06832        -6.97318        -1.71179
   C        0.83127        -3.65603        -0.20963
   C        0.43946        -2.22476        -0.27214
   O        1.12169        -1.26502        -0.00561
   C        1.99155        -4.02379         0.40084
   C        2.36649        -5.31100         0.89290
   C        3.73691        -5.63709         1.01261
   O        4.61435        -4.70052         0.59670
   C        5.99046        -5.00761         0.59286
   C        4.09044        -6.88940         1.49784
   C        3.14036        -7.81927         1.89040
   C        1.76935        -7.48256         1.81062
   C        1.41046        -6.24855         1.31073
   O        0.87764        -8.42587         2.21922
   C       -0.48804        -8.22304         1.95040
   C        3.56077        -9.14334         2.36561
   C        4.48910        -9.90082         1.62835
   O        4.97578        -9.34861         0.48302
   C        5.69216       -10.16760        -0.41128
   C        4.83463       -11.16448         2.08662
   C        4.28889       -11.69051         3.25032
   C        3.38777       -10.92366         4.00403
   C        3.03460        -9.66434         3.54218
   O        2.96079       -11.46332         5.17698
   C        1.96573       -10.78412         5.90272
   C        4.67146       -13.04455         3.67153
   C        3.68919       -14.03348         3.89777
   O        2.40513       -13.66629         3.68120
   C        1.38483       -14.60736         3.91197
   C        4.09612       -15.29520         4.27773
   C        5.45352       -15.64516         4.38807
   C        6.42683       -14.64054         4.17554
   C        6.00970       -13.36358         3.82285
   O        7.72294       -14.98140         4.37688
   C        8.71801       -13.98762         4.27436
   C        5.74930       -16.98724         4.77400
   C        6.85004       -17.77767         4.62875
   C        6.93752       -19.00672         5.46619
   O        6.05898       -19.49471         6.13612
   C        8.33770       -19.47662         5.33041
   C        9.00391       -18.66437         4.39556
   C       10.34954       -18.87030         4.13846
   C       11.01710       -19.89955         4.79878
   C       10.33690       -20.71525         5.71797
   C        8.98080       -20.50200         5.98789
   C       10.98515       -21.78946         6.37908
   N       11.40518       -22.69907         6.93365
   C       12.48867       -20.12284         4.60035
   O       13.19399       -20.53775         5.47454
   O       12.97854       -19.82231         3.39124
   C        8.05516       -17.69731         3.84269
   C        8.23585       -17.02179         2.66289
   C        7.23839       -16.26635         2.01809
   N        6.46113       -15.64048         1.45102
   C        9.43014       -17.07456         1.91820
   N       10.39408       -17.09349         1.29407
   H       -3.03034        -4.83994        -1.45506
   H       -4.52531        -4.51072        -2.86111
   H       -1.55021        -0.16709        -0.57694
   H        2.69779        -3.22123         0.58475
   H        6.48268        -4.13167         0.17363
   H        6.19911        -5.87919        -0.03324
   H        6.36481        -5.18373         1.60583
   H        5.12690        -7.16771         1.58236
   H        0.37245        -5.95865         1.27138
   H       -0.98636        -9.14133         2.25679
   H       -0.66732        -8.05660         0.88316
   H       -0.89615        -7.38475         2.52544
   H        5.84338        -9.56079        -1.30265
   H        5.12668       -11.06494        -0.67678
   H        6.66582       -10.45811        -0.00235
   H        5.51620       -11.78584         1.52776
   H        2.34275        -9.05259         4.09566
   H        1.71897       -11.43326         6.74163
   H        1.07084       -10.61767         5.29571
   H        2.32947        -9.82492         6.28631
   H        0.45342       -14.09030         3.68727
   H        1.37189       -14.93858         4.95506
   H        1.48217       -15.47609         3.25303
   H        3.37191       -16.07486         4.45232
   H        6.73257       -12.58114         3.65712
   H        9.65574       -14.48524         4.51867
   H        8.54535       -13.17367         4.98356
   H        8.77693       -13.58542         3.25848
   H        4.95648       -17.47386         5.33813
   H       10.88764       -18.21250         3.47228
   H        8.45409       -21.12245         6.69690
   H       12.31500       -19.51977         2.75554
*
