# ORCA input file
# SCF done       -193.932104477504          0.000593564888
! CAM-B3LYP def2-SVP def2/J RIJCOSX Grid4 TightSCF
%maxcore 5000
%tddft
    Mode sTDDFT
    Ethresh 5.0
    maxcore 5000
end

%pal
  nprocs 6
  end
* xyz 0 2
   C       -3.30788         1.20450         3.67506
   O       -4.18017         0.72346         2.98242
   C       -3.46373         2.33986         4.60495
   C       -2.22520         2.63541         5.20105
   C       -2.14077         3.66687         6.12248
   C       -3.29223         4.38319         6.42908
   C       -4.51709         4.08314         5.82702
   C       -4.60799         3.05025         4.90348
  Br       -6.06501         5.07459         6.26200
  Br       -3.17642         5.78536         7.69068
   C       -1.21610         1.71685         4.67793
   C        0.12179         1.77194         4.95594
   C        0.70573         2.71915         5.82667
   N        1.23546         3.46091         6.52302
   C        1.11786         0.93325         4.40711
   N        1.99604         0.31457         4.00415
   C       -1.89444         0.79029         3.78293
   C       -1.33590        -0.31571         3.21136
   C       -1.91048        -1.26725         2.34262
   S       -3.51015        -1.27308         1.60765
   C       -3.01454        -2.76189         0.84168
   N       -1.78679        -3.12545         1.17119
   N       -1.19771        -2.31269         1.97469
   C       -3.85065        -3.49205        -0.03894
   C       -3.45764        -4.68019        -0.56641
   C       -4.18940        -5.50120        -1.46045
   C       -5.25099        -5.10444        -2.38383
   C       -5.59487        -3.84300        -2.71380
   C       -5.79852        -6.31942        -2.98102
   C       -4.99098        -7.41078        -2.52195
   C       -4.01331        -6.87640        -1.58476
   C       -3.08269        -7.70632        -0.91428
   C       -2.98190        -9.03324        -1.13708
   S       -3.93801        -9.91163        -2.27798
   C       -4.99364        -8.72506        -2.90344
   C       -6.88963        -6.30735        -3.85407
   C       -7.64462        -7.38961        -4.22202
   C       -8.67488        -7.46260        -5.19628
   C       -9.50631        -6.42902        -5.72239
   C       -9.61076        -5.07215        -5.17137
   O       -9.10532        -4.60126        -4.19341
   S      -10.73870        -4.09062        -6.18177
   C      -11.14456        -5.46693        -7.21622
   O      -11.91397        -5.37439        -8.13488
   C      -10.40159        -6.66488        -6.77170
   C      -10.63204        -7.93431        -7.33780
   C       -9.85258        -8.96113        -6.78671
   C       -8.92272        -8.73006        -5.78016
   C       -8.21680       -10.00306        -5.54200
   O       -7.32315       -10.27100        -4.78918
   O       -8.74177       -10.93538        -6.39649
   C       -9.71913       -10.38233        -7.18917
   O      -10.27332       -11.01207        -8.03590
   C      -11.62326        -8.12807        -8.37206
   C      -12.47586        -9.16421        -8.42834
   C      -13.48544        -9.29162        -9.43966
   C      -14.25735        -8.31826        -9.97087
   C      -14.99612        -8.57277       -11.24504
   O      -15.19321        -9.64182       -11.76639
   C      -15.37021        -7.23146       -11.73997
   C      -15.02977        -6.26191       -10.77794
   C      -14.48270        -6.92702        -9.59862
   C      -14.43696        -6.38289        -8.34860
   C      -14.05510        -7.06812        -7.17638
   N      -13.76866        -7.54887        -6.17458
   C      -14.82676        -5.05492        -8.05779
   N      -15.14558        -3.99318        -7.76600
   C      -15.24016        -4.91937       -11.04589
   C      -15.80522        -4.56687       -12.26540
   C      -16.16240        -5.53708       -13.20667
   C      -15.94039        -6.88304       -12.94796
  Br      -16.94281        -5.02876       -14.85017
  Br      -16.08269        -2.73702       -12.64218
   H       -1.21586         3.92755         6.61047
   H       -5.54715         2.80649         4.43147
   H       -0.30442        -0.55489         3.44011
   H       -4.82919        -3.07885        -0.22670
   H       -2.50114        -5.05699        -0.22732
   H       -5.07949        -2.99244        -2.30806
   H       -6.38051        -3.63325        -3.41760
   H       -2.41772        -7.25464        -0.19255
   H       -2.26794        -9.65285        -0.62074
   H       -5.64800        -9.13125        -3.65666
   H       -7.15593        -5.33766        -4.24178
   H       -7.41520        -8.33963        -3.76941
   H      -11.70663        -7.33594        -9.10366
   H      -12.40175        -9.98102        -7.72537
   H      -13.62017       -10.28420        -9.85912
   H      -14.96345        -4.14851       -10.34471
   H      -16.20400        -7.63840       -13.67194
*
