# ORCA input file
# SCF done       -181.793963942519          0.000860357894
! CAM-B3LYP def2-SVP def2/J RIJCOSX Grid4 TightSCF
%maxcore 5000
%tddft
    Mode sTDDFT
    Ethresh 5.0
    maxcore 5000
end

%pal
  nprocs 6
  end
* xyz 0 1
   C        1.05826         0.52742        -0.46717
   O       -0.03217         0.24307        -0.89141
   C        1.73356         1.83936        -0.58785
   C        2.93229         1.83535         0.14619
   C        3.71722         2.97777         0.18173
   C        3.29275         4.09980        -0.51968
   C        2.09898         4.09312        -1.24692
   C        1.30601         2.95374        -1.27971
  Br        1.54792         5.63309        -2.19007
  Br        4.36230         5.65675        -0.47086
   C        3.11005         0.52387         0.76238
   C        4.19745         0.12842         1.49275
   C        5.29829         0.96311         1.78802
   N        6.21683         1.59306         2.06223
   C        4.38747        -1.15863         2.04256
   N        4.61621        -2.17930         2.51494
   C        1.96329        -0.29190         0.39517
   C        1.67645        -1.53417         0.86387
   C        0.65115        -2.38467         0.37146
   S       -0.03704        -3.65893         1.38508
   C       -0.98425        -4.08610        -0.03268
   N       -0.70652        -3.32537        -1.06215
   N        0.17146        -2.40921        -0.83912
   C       -1.93934        -5.13593        -0.01623
   C       -2.62329        -5.48394        -1.13571
   C       -3.60979        -6.48590        -1.31894
   N       -4.23668        -7.29749        -0.39879
   C       -4.13882        -7.28196         1.04126
   C       -4.81543        -6.05569         1.64848
   C       -5.16440        -8.16817        -1.01605
   O       -5.84195        -8.96888        -0.40839
   C       -5.06440        -7.85704        -2.42276
   C       -4.11656        -6.82678        -2.57448
   C       -4.00986        -6.53267        -3.98836
   O       -3.33106        -5.74950        -4.61054
   N       -4.92718        -7.42389        -4.60226
   C       -5.10149        -7.37620        -6.03383
   C       -6.32590        -6.55428        -6.43110
   C       -5.56592        -8.21311        -3.67689
   C       -6.54276        -9.22763        -3.83499
   C       -7.17718        -9.65879        -4.95548
   C       -8.14980       -10.69349        -4.96067
   S       -8.92712       -11.12431        -6.45797
   C       -9.89371       -12.34317        -5.69176
   C       -9.60203       -12.39562        -4.32145
   C       -8.62866       -11.47175        -3.92236
   C      -10.20988       -13.26633        -3.39862
   N      -10.69230       -13.94676        -2.61115
   C      -10.78646       -13.11118        -6.47362
   C      -11.55658       -14.12954        -6.00686
   C      -12.40268       -14.89773        -6.83646
   C      -13.01689       -16.06333        -6.48677
   C      -14.17471       -16.57076        -7.26852
   O      -14.53398       -16.20400        -8.36170
   C      -14.81583       -17.57257        -6.38762
   C      -14.04078       -17.74402        -5.22466
   C      -12.83635       -16.92112        -5.33353
   C      -11.68108       -17.10866        -4.62306
   C      -10.44322       -16.51313        -4.95012
   N       -9.40335       -16.10513        -5.21259
   C      -11.56244       -18.02643        -3.55638
   N      -11.42721       -18.76175        -2.68697
   C      -14.46892       -18.60972        -4.23296
   C      -15.66130       -19.29969        -4.42229
   C      -16.41601       -19.13673        -5.58644
   C      -15.99410       -18.26347        -6.58085
  Br      -18.02555       -20.09789        -5.82165
  Br      -16.25603       -20.47337        -3.06638
   H        4.64052         3.02389         0.73602
   H        0.38065         2.93388        -1.83432
   H        2.25769        -1.94690         1.67810
   H       -2.07071        -5.63025         0.93224
   H       -2.38448        -4.94505        -2.04465
   H       -3.09177        -7.35696         1.34492
   H       -4.65753        -8.18539         1.37727
   H       -4.37641        -5.13396         1.27382
   H       -4.71465        -6.07905         2.72997
   H       -5.87379        -6.05800         1.39967
   H       -5.14702        -8.39246        -6.43218
   H       -4.20284        -6.89017        -6.42624
   H       -7.23150        -6.94189        -5.96941
   H       -6.44572        -6.56940        -7.51084
   H       -6.19318        -5.52364        -6.11211
   H       -6.79634        -9.68992        -2.88983
   H       -6.97874        -9.21866        -5.91988
   H       -8.29116       -11.38576        -2.90520
   H      -10.80504       -12.88186        -7.53182
   H      -11.53605       -14.36549        -4.95430
   H      -12.64687       -14.50834        -7.81884
   H      -13.91335       -18.75424        -3.32030
   H      -16.57191       -18.12733        -7.48183
*
