# ORCA input file
# SCF done       -218.537187877844          0.000906810796
! CAM-B3LYP def2-SVP def2/J RIJCOSX Grid4 TightSCF
%maxcore 5000
%tddft
    Mode sTDDFT
    Ethresh 5.0
    maxcore 5000
end

%pal
  nprocs 6
  end
* xyz 0 1
   C       12.56004        -0.09572         0.78284
   C       13.67109         0.08318         0.01692
   S       13.42086         1.30945        -1.16945
   C       11.78684         1.59699        -0.62898
  Cl       10.79830         2.75364        -1.36671
   C       11.47793         0.77185         0.41495
   C       10.32444         0.52506         1.27037
   O        9.25506         1.09167         1.29219
   C       10.75894        -0.58926         2.18240
   C       12.14409        -0.94553         1.87771
   C       12.90663        -1.90991         2.46905
   C       14.23883        -2.14621         2.06093
   N       15.32095        -2.34593         1.73990
   C       12.47779        -2.76499         3.50664
   N       12.17550        -3.49801         4.33529
   C        9.96125        -1.11160         3.12869
   C        8.56541        -0.72887         3.28162
   C        8.05399        -0.20473         4.47188
   C        8.92508         0.03281         5.63885
   O       10.10991        -0.11627         5.68961
   S        7.92139         0.60853         6.99839
   C        6.40633         0.61093         6.01957
   O        5.35445         0.92434         6.48580
   C        6.71591         0.16157         4.64330
   C        5.77580         0.03117         3.60637
   C        6.29482        -0.51617         2.42284
   C        7.62233        -0.87962         2.26332
   C        7.78064        -1.38735         0.87330
   O        8.74468        -1.82154         0.32538
   O        6.55952        -1.27715         0.26784
   C        5.61731        -0.74510         1.12157
   O        4.49828        -0.51822         0.79189
   C        4.37316         0.37701         3.68128
   C        3.89645         1.53697         4.16380
   C        2.50748         1.85643         4.22391
   S        2.01679         3.46680         4.67457
   C        0.31523         3.10779         4.55061
   C        0.16260         1.78466         4.18497
   C        1.37994         1.09150         4.00000
   C        1.04469        -0.29644         3.65293
   O        1.74334        -1.23587         3.41945
   O       -0.32902        -0.37750         3.64510
   C       -0.92609         0.82413         3.95933
   O       -2.11066         0.95084         4.02588
   C       -0.63499         4.13267         4.83079
   C       -1.96284         3.98400         4.67915
   C       -2.93776         5.01818         4.94150
   C       -2.98274         5.85554         6.07140
   C       -2.11342         5.63769         7.25291
   O       -1.31661         4.76809         7.43528
   S       -2.46358         6.88982         8.47902
   C       -3.61419         7.72884         7.40449
   O       -3.94712         8.85899         7.61608
   C       -3.92846         6.87734         6.23262
   C       -5.01818         7.04702         5.34046
   C       -4.96991         6.18420         4.22488
   C       -3.97028         5.24593         4.02556
   C       -4.20948         4.59164         2.71603
   O       -3.55983         3.78351         2.13397
   O       -5.36956         5.13036         2.21313
   C       -5.88518         6.08182         3.05391
   O       -6.88784         6.67563         2.80399
   C       -6.20282         7.85025         5.49163
   C       -6.53288         8.72409         6.46698
   C       -7.83889         9.28415         6.57013
   C       -8.37335         9.80577         7.70132
   C       -9.61162        10.65203         7.62742
   O      -10.35698        10.74462         6.68519
   C       -9.64583        11.34860         8.91682
   C      -10.40164        12.31657         9.50999
   S       -9.81058        12.65060        11.12071
   C       -8.55739        11.47452        10.97722
   C       -8.58955        10.86656         9.76046
   C       -7.86814         9.81640         9.06670
   C       -7.02283         8.92572         9.67190
   C       -6.66896         9.07002        11.03278
   N       -6.36545         9.18389        12.13233
   C       -6.47906         7.75902         9.09838
   N       -6.01796         6.77750         8.71995
  Cl      -11.73639        13.13751         8.87050
   H       14.61714        -0.41907         0.06452
   H       10.33424        -1.84341         3.83363
   H        3.69449        -0.34931         3.25139
   H        4.56681         2.31148         4.51052
   H       -0.21609         5.07359         5.16135
   H       -2.35873         3.06555         4.26393
   H       -6.96226         7.63364         4.75070
   H       -5.81810         9.04113         7.20884
   H       -8.45427         9.33223         5.67805
   H       -7.88116        11.32297        11.79515
*
