# ORCA input file
# SCF done       -197.395633954700          0.000930935214
! CAM-B3LYP def2-SVP def2/J RIJCOSX Grid4 TightSCF
%maxcore 5000
%tddft
    Mode sTDDFT
    Ethresh 5.0
    maxcore 5000
end

%pal
  nprocs 6
  end
* xyz 0 1
   C       -0.05185        -2.01969        -2.48844
   C       -0.99012        -1.95047        -3.47196
   S       -0.66697        -3.09330        -4.72296
   C        0.75739        -3.68884        -3.90505
  Cl        1.70950        -4.91960        -4.56496
   C        0.95025        -3.01393        -2.73561
   C        1.91576        -3.03694        -1.63973
   O        2.78958        -3.84403        -1.42921
   C        1.48322        -1.91657        -0.73215
   C        0.24021        -1.35035        -1.23812
   C       -0.50639        -0.33927        -0.69652
   C       -1.68230         0.12383        -1.32572
   N       -2.64170         0.51123        -1.82006
   C       -0.21862         0.33792         0.50534
   N       -0.03281         0.92118         1.47639
   C        2.12193        -1.57906         0.41597
   C        3.44574        -1.99937         0.73537
   S        3.94772        -2.32386         2.37549
   C        5.58461        -2.72859         1.90822
   C        5.71473        -2.56202         0.53377
   C        4.52669        -2.16085        -0.10454
   C        4.83016        -1.94457        -1.52561
   O        4.15370        -1.53429        -2.41878
   O        6.15820        -2.27172        -1.68834
   C        6.74460        -2.66018        -0.50269
   O        7.89329        -2.99144        -0.44309
   C        6.49156        -3.18331         2.89169
   C        7.76557        -3.57432         2.61165
   C        8.62336        -4.12395         3.59200
   N        9.88948        -4.58404         3.31987
   C       10.55280        -4.57503         2.03611
   C       10.09089        -5.72736         1.14881
   C       10.48924        -5.16812         4.44571
   O       11.60287        -5.65379         4.44440
   C        9.49999        -5.02388         5.49533
   C        8.37739        -4.36587         4.94633
   C        7.38804        -4.22136         5.99628
   O        6.28265        -3.71824         6.00219
   N        7.98577        -4.81080         7.12092
   C        7.28024        -4.91259         8.37805
   C        6.60410        -6.27062         8.54251
   C        9.23049        -5.31729         6.83537
   C       10.00465        -6.05397         7.76167
   C       11.20282        -6.60848         7.42934
   C       11.93484        -7.46417         8.28348
   S       13.41673        -8.18391         7.70027
   C       13.65615        -9.14442         9.13967
   C       12.62971        -8.87782        10.03246
   C       11.67786        -7.94883         9.55942
   C       10.65532        -7.80604        10.59523
   O        9.66346        -7.13695        10.64078
   O       11.02439        -8.63325        11.63366
   C       12.19099        -9.30732        11.36328
   O       12.67319       -10.07460        12.14573
   C       14.72566       -10.07465         9.18772
   C       14.88580       -10.96803        10.19392
   C       15.86104       -11.99833        10.18646
   C       15.79892       -13.12627        10.94112
   C       17.01400       -13.98055        11.13319
   O       18.03562       -13.92749        10.49340
   C       16.67935       -14.82520        12.28518
   C       17.30701       -15.75429        13.06095
   S       16.22836       -16.34429        14.30307
   C       14.93879       -15.33749        13.75335
   C       15.32070       -14.59019        12.68389
   C       14.71937       -13.63373        11.77292
   C       13.37253       -13.43825        11.62688
   C       12.44923       -14.04960        12.50350
   N       11.69339       -14.53861        13.21371
   C       12.74997       -12.74508        10.56856
   N       12.18363       -12.25872         9.69657
  Cl       18.89491       -16.32690        12.92651
   H       -1.84691        -1.31107        -3.55168
   H        1.63212        -0.94948         1.14787
   H        6.11660        -3.24221         3.90568
   H        8.13718        -3.49676         1.60083
   H       11.62064        -4.67973         2.24695
   H       10.37842        -3.61705         1.54145
   H       10.27731        -6.67830         1.64231
   H       10.64019        -5.70580         0.21240
   H        9.02968        -5.64722         0.92732
   H        6.52226        -4.12458         8.36459
   H        7.97349        -4.72762         9.20133
   H        5.90510        -6.44228         7.72738
   H        6.05864        -6.29209         9.48112
   H        7.33804        -7.07242         8.55300
   H        9.59860        -6.21047         8.74965
   H       11.62375        -6.43669         6.44655
   H       15.37045       -10.10951         8.31937
   H       14.22799       -10.91555        11.04927
   H       16.74313       -11.87812         9.56710
   H       13.99632       -15.36186        14.26343
*
