# ORCA input file
# SCF done       -199.513681130497          0.000722110756
! CAM-B3LYP def2-SVP def2/J RIJCOSX Grid4 TightSCF
%maxcore 5000
%tddft
    Mode sTDDFT
    Ethresh 5.0
    maxcore 5000
end

%pal
  nprocs 6
  end
* xyz 0 2
   C       -0.42391        -2.52247        -3.30358
   O       -0.82245        -3.64076        -3.53198
   C       -0.11516        -1.46093        -4.28818
   C        0.42119        -0.34017        -3.63976
   C        0.78493         0.78685        -4.35245
   C        0.60786         0.78027        -5.73105
   C        0.07230        -0.34112        -6.37969
   C       -0.29282        -1.47191        -5.65946
  Cl       -0.13552        -0.31926        -8.08317
  Cl        1.05195         2.16168        -6.64687
   C        0.49830        -0.58334        -2.17841
   O        0.92579         0.15702        -1.32946
   C       -0.09300        -1.93371        -1.97913
   C       -0.30921        -2.48149        -0.77369
   C       -0.96170        -3.76167        -0.55816
   C       -2.22092        -4.11245        -1.07376
   C       -3.08812        -3.18740        -1.82179
   O       -2.91300        -2.02647        -2.06294
   S       -4.56914        -4.05850        -2.32384
   C       -4.11735        -5.55510        -1.43419
   O       -4.86199        -6.48220        -1.30933
   C       -2.76687        -5.38504        -0.87743
   C       -2.11647        -6.40567        -0.15358
   C       -0.87729        -6.03190         0.39504
   C       -0.33811        -4.75582         0.19080
   C        0.99354        -4.72361         0.82263
   O        1.78997        -3.83623         0.89176
   O        1.20697        -5.96568         1.36666
   C        0.13579        -6.80210         1.13737
   O        0.14171        -7.93781         1.51778
   C       -2.67592        -7.72776        -0.04916
   C       -2.63328        -8.48233         1.07098
   C       -3.14421        -9.80610         1.11701
   N       -3.18112       -10.56911         2.25985
   C       -2.66423       -10.20647         3.55808
   C       -1.14487       -10.34199         3.62219
   C       -3.72784       -11.83806         2.02622
   O       -3.86087       -12.68530         2.89177
   C       -4.05653       -11.83600         0.61764
   C       -3.68461       -10.57766         0.08902
   C       -3.99324       -10.57688        -1.32512
   O       -3.82928        -9.74981        -2.19717
   N       -4.56738       -11.84019        -1.55377
   C       -4.97621       -12.23930        -2.87791
   C       -3.92408       -13.11102        -3.55989
   C       -4.60018       -12.61008        -0.41238
   C       -5.09911       -13.92883        -0.35989
   C       -5.06807       -14.66396         0.78919
   C       -5.51640       -15.99459         0.91873
   S       -5.32753       -16.80335         2.45083
   C       -6.02262       -18.27912         1.83401
   C       -6.39050       -18.11168         0.48543
   C       -6.10565       -16.84078        -0.01185
   C       -6.99478       -19.11370        -0.28817
   N       -7.49404       -19.92677        -0.92719
   C       -6.11569       -19.40253         2.67439
   C       -6.55440       -20.63186         2.31445
  Cl       -6.64310       -21.88625         3.50569
   C       -8.35583       -22.22256         3.66887
   C       -8.85668       -23.38769         3.11008
   C      -10.21385       -23.61647         3.22073
   C      -11.05813       -22.68173         3.85970
   C      -10.54180       -21.50903         4.39953
   C       -9.18188       -21.27850         4.30861
  Cl       -8.48948       -19.85438         4.98589
   C      -12.44944       -23.16398         3.84972
   O      -13.42513       -22.61180         4.31148
   C      -12.40647       -24.48205         3.15340
   C      -13.45387       -25.27379         2.92571
   C      -11.00174       -24.77847         2.75423
   O      -10.58884       -25.75772         2.17902
   H        1.19609         1.64935        -3.85177
   H       -0.70812        -2.33437        -6.15679
   H        0.06574        -1.96419         0.10273
   H       -3.17713        -8.10794        -0.93133
   H       -2.22025        -8.07787         1.98200
   H       -3.12727       -10.89724         4.26900
   H       -2.97647        -9.18790         3.80345
   H       -0.85647       -11.36760         3.40466
   H       -0.79790       -10.08925         4.62038
   H       -0.65911        -9.68498         2.90514
   H       -5.10563       -11.31329        -3.44509
   H       -5.93853       -12.75632        -2.82424
   H       -2.99063       -12.56088        -3.64704
   H       -4.26044       -13.38428        -4.55622
   H       -3.73808       -14.01891        -2.98969
   H       -5.50295       -14.35494        -1.26654
   H       -4.65585       -14.21202         1.68188
   H       -6.32567       -16.54746        -1.02257
   H       -5.77026       -19.25010         3.68871
   H       -6.92783       -20.92275         1.35083
   H       -8.21657       -24.10265         2.61656
   H      -11.19352       -20.80200         4.88863
   H      -14.44203       -24.98742         3.24738
   H      -13.33510       -26.21551         2.41462
*
