# ORCA input file
# SCF done       -204.439020666531          0.000961038538
! CAM-B3LYP def2-SVP def2/J RIJCOSX Grid4 TightSCF
%maxcore 5000
%tddft
    Mode sTDDFT
    Ethresh 5.0
    maxcore 5000
end

%pal
  nprocs 6
  end
* xyz 0 1
   C        1.46995         2.22491         1.84227
   C        0.24504         2.62665         2.30275
   C       -0.03759         2.87972         3.66147
   N       -0.31068         3.12868         4.74808
   C       -0.90266         2.76026         1.49421
   N       -1.88148         2.83061         0.89896
   C        2.59402         1.81812         2.67655
   C        3.48694         1.03256         1.88885
   C        4.60963         0.46893         2.42420
   C        4.89956         0.67418         3.79154
   C        4.02061         1.47262         4.58014
   C        2.86404         2.04170         4.00071
   C        4.32273         1.67212         5.94274
   C        5.43613         1.10726         6.50247
   C        6.30006         0.32040         5.72582
   C        6.03783         0.10870         4.39944
   C        2.99077         0.96834         0.50469
   O        3.44894         0.35633        -0.43049
   C        1.80670         1.88403         0.46961
   C        1.32444         2.30039        -0.72108
   C        0.42445         3.39548        -0.99348
   C       -0.48266         3.29997        -2.04449
   C       -1.39092         4.31507        -2.29150
   N       -2.36762         4.06207        -3.31441
   O       -2.05670         3.27745        -4.19020
   O       -3.44507         4.61059        -3.24542
   C       -1.39162         5.50993        -1.54512
   C       -0.42044         5.61189        -0.53496
   C        0.44676         4.58648        -0.25181
   C       -2.27177         6.60941        -1.83912
   C       -2.67296         7.51359        -0.91637
   C       -3.50845         8.61585        -1.24168
   N       -3.99456         9.50621        -0.30971
   C       -3.83484         9.43206         1.12148
   C       -4.73744         8.36783         1.74157
   C       -4.78167        10.51426        -0.90246
   O       -5.30135        11.41694        -0.27888
   C       -4.75378        10.19294        -2.30941
   C       -3.96415         9.03113        -2.48796
   C       -3.93727         8.74448        -3.90579
   O       -3.35358         7.89716        -4.54876
   N       -4.75401         9.73896        -4.48773
   C       -4.92498         9.76190        -5.91902
   C       -4.09603        10.86230        -6.57617
   C       -5.23532        10.61312        -3.54492
   C       -6.07502        11.76041        -3.67624
   C       -6.74612        12.21892        -4.74951
   C       -7.57779        13.40236        -4.70838
   C       -7.28695        14.51925        -3.97398
   S       -8.41710        15.78901        -4.20455
   C       -9.32120        14.83707        -5.29193
   C       -8.77970        13.59315        -5.47432
   C       -9.47212        12.58363        -6.28067
   O      -10.36146        12.79249        -7.06339
   O       -8.99554        11.33920        -6.00197
   C       -9.52666        10.24681        -6.60011
   C       -8.98833         9.04571        -6.33405
   C       -9.45578         7.83630        -6.91733
   C       -8.83892         6.63620        -6.75394
   C       -9.25578         5.35739        -7.30959
   C      -10.44068         5.08824        -7.94231
   C      -10.80133         3.82071        -8.44717
   N      -11.16151         2.82159        -8.88311
   C      -11.48113         6.01446        -8.16468
   N      -12.37596         6.70220        -8.37820
   C       -8.20126         4.39287        -7.03573
   C       -7.18116         5.02688        -6.26612
   C       -7.54603         6.43001        -6.03317
   O       -6.91340         7.25694        -5.40891
   C       -6.05654         4.35922        -5.86807
   C       -5.89704         3.00471        -6.23970
   C       -6.91561         2.36214        -7.00321
   C       -8.06959         3.07666        -7.39385
   C       -6.74681         1.00987        -7.36405
   C       -5.62265         0.32267        -6.99412
   C       -4.61670         0.95842        -6.25167
   C       -4.75023         2.26985        -5.88212
   H        5.26730        -0.12996         1.81198
   H        2.22078         2.64865         4.61862
   H        3.65262         2.27539         6.53739
   H        5.65697         1.26274         7.54774
   H        7.17414        -0.11735         6.18399
   H        6.69908        -0.49649         3.79687
   H        1.69927         1.76267        -1.58671
   H       -0.52901         2.40386        -2.64576
   H       -0.34555         6.53343         0.02068
   H        1.18308         4.70920         0.52944
   H       -2.64504         6.70571        -2.85039
   H       -2.39052         7.39522         0.12024
   H       -4.11379        10.41811         1.50430
   H       -2.78516         9.24494         1.36755
   H       -5.77842         8.59653         1.52753
   H       -4.59987         8.34974         2.81923
   H       -4.51258         7.38121         1.34240
   H       -5.98421         9.85595        -6.16467
   H       -4.58456         8.78300        -6.26880
   H       -4.36593        11.84282        -6.18945
   H       -4.25682        10.85245        -7.65083
   H       -3.03915        10.69469        -6.38303
   H       -6.19658        12.27838        -2.73249
   H       -6.71497        11.70672        -5.69657
   H       -6.44281        14.67289        -3.33175
   H      -10.22173        15.21173        -5.73687
   H      -10.35851        10.41907        -7.27399
   H       -8.15705         8.98576        -5.64696
   H      -10.34183         7.90665        -7.53421
   H       -5.30022         4.85421        -5.27638
   H       -8.81922         2.56527        -7.97662
   H       -7.52376         0.52825        -7.93992
   H       -5.50248        -0.71311        -7.27556
   H       -3.73104         0.40728        -5.97356
   H       -3.97107         2.75868        -5.32051
*
