# ORCA input file
# SCF done       -198.490013942415          0.000495278994
! CAM-B3LYP def2-SVP def2/J RIJCOSX Grid4 TightSCF
%maxcore 5000
%tddft
    Mode sTDDFT
    Ethresh 5.0
    maxcore 5000
end

%pal
  nprocs 6
  end
* xyz 0 1
   C        0.18374        -1.23776        -0.24094
   N       -0.27585        -0.60623        -1.35575
   C       -0.49910        -1.21940        -2.64045
   C       -1.78954        -2.03501        -2.65684
   C       -0.58598         0.74503        -1.09178
   O       -1.01462         1.50920        -1.93951
   C       -0.26654         0.91138         0.30188
   C        0.21066        -0.34762         0.79396
   C        0.53344        -0.18397         2.19666
   O        0.95732        -0.94962         3.03356
   N        0.22650         1.16573         2.46198
   C        0.45142         1.73754         3.76673
   C        1.74030         2.55474         3.81731
   C       -0.24418         1.82398         1.34675
   C       -0.63659         3.18872         1.34881
   C       -1.10970         3.81217         0.24303
   C       -1.52816         5.16743         0.20904
   C       -2.06021         5.82476        -0.86906
   C       -2.40713         7.16875        -0.60575
   C       -2.11191         7.54172         0.73594
   S       -1.42183         6.21159         1.62256
   C       -2.36193         8.80168         1.22677
   C       -2.93643         9.73680         0.36224
   C       -3.23884         9.36075        -0.97500
   C       -2.98074         8.10366        -1.46994
   S       -3.95667        10.68143        -1.84859
   C       -3.85480        11.72909        -0.43503
   C       -3.28930        11.07602         0.63225
   C       -4.28437        13.08536        -0.39987
   N       -4.92228        13.78432        -1.39934
   C       -5.41597        13.30074        -2.66554
   C       -6.73194        12.54336        -2.50922
   C       -5.17986        15.11646        -1.02302
   O       -5.74308        15.91537        -1.75006
   C       -4.64085        15.22888         0.30543
   C       -4.10337        13.96362         0.66742
   C       -3.55684        14.08562         1.99940
   O       -3.00586        13.28994         2.73860
   N       -3.78580        15.42477         2.35117
   C       -3.41901        15.92935         3.65159
   C       -4.62273        16.02452         4.58610
   C       -4.43518        16.11928         1.35523
   C       -4.77840        17.49053         1.44486
   C       -5.45152        18.14063         0.46283
   C       -5.81117        19.51047         0.51280
   C       -6.51475        20.19829        -0.44181
   C       -6.72887        21.55815        -0.12635
   C       -6.15292        21.91101         1.12693
   S       -5.37608        20.54218         1.87179
   C       -6.22231        23.18403         1.64160
   C       -6.89114        24.15521         0.89236
   C       -7.47489        23.79993        -0.35408
   C       -7.40296        22.52760        -0.87194
   S       -8.25026        25.16889        -1.09406
   C       -7.78977        26.21121         0.25025
   C       -7.08250        25.51876         1.20107
   C       -8.07921        27.60353         0.33331
   N       -8.82563        28.35323        -0.54597
   C       -9.60615        27.90686        -1.67380
   C      -10.92705        27.27969        -1.23584
   C       -8.86737        29.71256        -0.17232
   O       -9.46875        30.55511        -0.80968
   C       -8.07450        29.78240         1.02793
   C       -7.60949        28.46628         1.31944
   C       -6.81478        28.54127         2.52020
   O       -6.22312        27.70021         3.17382
   N       -6.84820        29.90076         2.87772
   C       -6.11280        30.38208         4.02121
   C       -4.78246        31.01301         3.61550
   C       -7.58908        30.64886         1.99360
   C       -7.78402        32.06448         2.12631
   C       -8.49056        32.78559         1.25351
   H        0.46552        -2.27403        -0.26949
   H        0.35680        -1.85425        -2.88838
   H       -0.56494        -0.40433        -3.36637
   H       -1.74895        -2.83257        -1.91810
   H       -1.93704        -2.47497        -3.63916
   H       -2.63791        -1.39382        -2.43039
   H        0.52733         0.89168         4.45611
   H       -0.40859         2.34982         4.05298
   H        2.58951         1.92142         3.57273
   H        1.88227         2.95651         4.81680
   H        1.70786         3.37984         3.10923
   H       -0.56099         3.74157         2.27524
   H       -1.19281         3.26687        -0.68848
   H       -2.20250         5.34952        -1.82320
   H       -2.12919         9.07202         2.24404
   H       -3.21408         7.83833        -2.48881
   H       -3.12840        11.54822         1.58548
   H       -4.66056        12.67847        -3.14996
   H       -5.58181        14.19377        -3.27603
   H       -6.60690        11.67121        -1.87205
   H       -7.08336        12.21484        -3.48311
   H       -7.48265        13.19453        -2.06738
   H       -2.93361        16.90345         3.54308
   H       -2.69483        15.21716         4.05719
   H       -5.37415        16.70196         4.18676
   H       -4.30506        16.38851         5.55930
   H       -5.07292        15.04280         4.71134
   H       -4.48720        18.03380         2.33368
   H       -5.74870        17.60528        -0.42978
   H       -6.86648        19.73439        -1.34593
   H       -5.77667        23.43931         2.58939
   H       -7.84812        22.27771        -1.82186
   H       -6.70312        25.97957         2.09616
   H       -9.02447        27.21045        -2.28159
   H       -9.80893        28.80586        -2.26408
   H      -10.75617        26.40794        -0.60872
   H      -11.49455        26.97318        -2.10965
   H      -11.51237        28.00456        -0.67483
   H       -5.92523        29.50619         4.64927
   H       -6.72696        31.09212         4.58192
   H       -4.16752        30.27869         3.10093
   H       -4.25061        31.35415         4.49962
   H       -4.93935        31.85958         2.95030
   H       -7.32750        32.54092         2.98335
   H       -8.95281        32.33355         0.39202
   H       -8.61935        33.84639         1.38305
*
