# ORCA input file
# SCF done       -204.916441693126          0.000930945601
! CAM-B3LYP def2-SVP def2/J RIJCOSX Grid4 TightSCF
%maxcore 5000
%tddft
    Mode sTDDFT
    Ethresh 5.0
    maxcore 5000
end

%pal
  nprocs 6
  end
* xyz 0 1
   C      -15.06955        -7.82935         7.66884
   C      -13.73529        -8.04414         7.40012
   C      -12.93337        -8.97620         8.08642
   N      -12.22721        -9.72170         8.60240
   C      -12.97276        -7.37186         6.42550
   N      -12.27244        -6.87175         5.66302
   C      -15.83894        -8.51525         8.70656
   C      -17.15493        -7.99228         8.71339
   C      -18.12798        -8.44202         9.57053
   C      -17.78866        -9.46407        10.46458
   C      -16.47267        -9.98044        10.45111
   C      -15.48610        -9.52074         9.58540
   S      -16.26975       -11.24300        11.62846
   C      -17.93447       -11.06183        12.11458
   C      -18.60854       -10.10554        11.43345
  Br      -18.62661       -12.15527        13.47312
   C      -17.27083        -6.95353         7.66776
   O      -18.26319        -6.29812         7.41425
   C      -15.95135        -6.90504         7.00857
   C      -15.66198        -6.14495         5.88910
   C      -16.55702        -5.29628         5.25305
   C      -16.27145        -4.65517         4.05731
   C      -17.15146        -3.85461         3.30362
   C      -16.63620        -3.44072         2.10415
   C      -15.32455        -3.88729         1.87032
   S      -14.74326        -4.82317         3.22197
   C      -14.55478        -3.73914         0.71731
   C      -14.95443        -3.17933        -0.50721
   C      -14.01383        -3.33726        -1.48680
   C      -12.83362        -3.99241        -1.06894
   S      -12.91974        -4.35811         0.63325
   C      -11.85429        -4.38190        -1.97054
   C      -10.63394        -5.03386        -1.80850
   C       -9.97055        -5.52401        -2.98488
   C       -8.71468        -6.18050        -2.90396
   N       -8.16062        -6.71488        -4.00546
   C       -8.79155        -6.58073        -5.14567
   C      -10.00058        -5.87793        -5.23518
   N      -10.57979        -5.37506        -4.17246
   C       -7.97973        -6.24077        -1.67346
   C       -8.63796        -5.75848        -0.49860
   C       -9.96434        -5.23588        -0.56370
   N      -10.59694        -4.89921         0.56462
   C       -9.98223        -5.02766         1.71597
   C       -8.66772        -5.50307         1.77084
   N       -8.02431        -5.87117         0.68890
   C       -6.69898        -6.79905        -1.68590
   C       -5.69701        -6.61491        -0.74913
   C       -4.50743        -7.31990        -0.78500
   C       -3.36997        -7.01066        -0.04661
   C       -2.20344        -7.78331         0.06509
   C       -1.19993        -7.18074         0.77974
   C       -1.52491        -5.88795         1.22010
   S       -3.16561        -5.48811         0.79093
   C       -0.66227        -4.96508         1.81574
   C        0.64680        -5.19394         2.26918
   C        1.28915        -4.05876         2.68753
   C        0.52122        -2.88652         2.55679
   S       -1.07581        -3.27620         1.96489
   C        0.96363        -1.59039         2.77815
   C        0.21512        -0.46070         2.48625
   C        0.61624         0.86121         2.53184
   C        1.77051         1.50282         3.09385
   C        2.50480         1.09477         4.18489
   C        3.60918         1.80248         4.69616
   N        4.52960         2.32751         5.13992
   C        2.18279        -0.01548         4.98897
   N        1.95057        -0.88150         5.70720
   C        1.92177         2.79454         2.42116
   C        0.77255         3.02686         1.62544
   C       -0.12288         1.85379         1.72018
   O       -1.20979         1.71040         1.20194
   C        0.60976         4.16646         0.87807
   C        1.63761         5.11652         0.90402
   C        2.78523         4.86971         1.69179
   C        2.94441         3.72079         2.45953
   S        3.93963         6.16228         1.56218
   C        2.87732         7.00569         0.46628
   C        1.71785         6.35568         0.21044
  Br        3.40224         8.66247        -0.24056
   H      -19.12191        -8.02308         9.54997
   H      -14.49904        -9.95080         9.61399
   H      -19.64158        -9.86257        11.60353
   H      -14.67810        -6.23917         5.44608
   H      -17.54043        -5.15566         5.67830
   H      -18.14121        -3.62354         3.65496
   H      -17.17040        -2.83570         1.39392
   H      -15.91029        -2.70954        -0.65623
   H      -14.14147        -3.01117        -2.50434
   H      -12.10136        -4.19257        -3.00990
   H       -8.33083        -7.03783        -6.01063
   H      -10.51002        -5.73283        -6.17790
   H      -10.54835        -4.77087         2.59952
   H       -8.13871        -5.60950         2.70730
   H       -6.46383        -7.37149        -2.57519
   H       -5.83603        -5.87337         0.02493
   H       -4.43507        -8.18288        -1.43590
   H       -2.12740        -8.76047        -0.37806
   H       -0.23665        -7.62309         0.95683
   H        1.08715        -6.17440         2.28270
   H        2.29476        -4.03300         3.06717
   H        1.98272        -1.49120         3.12178
   H       -0.76668        -0.61431         2.04748
   H       -0.27850         4.31978         0.28554
   H        3.84086         3.57492         3.03898
   H        0.95052         6.73067        -0.44196
*
