# ORCA input file
# SCF done       -221.210836285806          0.000688745761
! CAM-B3LYP def2-SVP def2/J RIJCOSX Grid4 TightSCF
%maxcore 5000
%tddft
    Mode sTDDFT
    Ethresh 5.0
    maxcore 5000
end

%pal
  nprocs 6
  end
* xyz 0 1
   C      -16.39222         2.09195         2.11487
   C      -17.01313         1.48523         3.17553
   C      -18.34867         1.72866         3.55517
   N      -19.43319         1.88299         3.89911
   C      -16.38270         0.57491         4.04913
   N      -15.91719        -0.14468         4.81352
   C      -16.95916         3.12744         1.26395
   C      -15.94478         3.62391         0.40757
   C      -16.17213         4.62578        -0.50405
   C      -17.46125         5.16448        -0.57501
   C      -18.46967         4.65724         0.27932
   C      -18.24085         3.64383         1.20086
   S      -19.98901         5.46037         0.02154
   C      -19.25829         6.45523        -1.21020
   C      -17.94508         6.19984        -1.42053
  Br      -20.29821         7.73670        -2.10113
   C      -14.68151         2.90099         0.66485
   O      -13.62290         3.06463         0.10030
   C      -15.01519         1.88980         1.70233
   C      -14.18795         0.87156         2.04542
   C      -12.81710         0.75129         1.57408
   C      -11.75956         1.61874         1.88174
   N      -11.64947         2.59387         2.84258
   C      -12.70232         2.96846         3.75139
   C      -13.32102         4.31981         3.40378
   C      -10.38526         3.15106         2.76807
   C       -9.67321         2.52032         1.71731
   C      -10.52778         1.49450         1.19638
   C      -10.32287         0.50135         0.25266
   C      -11.33802        -0.40895         0.02379
   C      -12.54931        -0.29376         0.68654
   C       -8.40402         2.93259         1.34174
   C       -7.85054         4.01745         1.99237
   C       -8.53554         4.63482         3.02676
   C       -9.78224         4.19888         3.48230
   C      -10.30538         4.85951         4.67055
   C      -10.68803         4.23293         5.80362
   C      -11.18590         4.91367         6.94251
   C      -11.68308         4.29972         8.05471
   C      -12.23762         4.93247         9.20068
   C      -12.71643         4.07581        10.13796
   C      -12.56521         2.70684         9.80366
   S      -11.77703         2.54990         8.24508
   C      -12.96885         1.61680        10.53873
   C      -13.67357         1.62149        11.76930
   C      -13.97246         0.38595        12.23760
   C      -13.50870        -0.69169        11.42355
   S      -12.68989        -0.03033        10.00915
   C      -13.63210        -2.00418        11.76321
   C      -13.17909        -3.16498        11.04211
   C      -12.82695        -4.39023        11.65043
   N      -12.76384        -4.77438        12.97821
   C      -12.95938        -3.93197        14.13075
   C      -14.41064        -3.92145        14.61498
   C      -12.30873        -6.06887        13.04977
   C      -12.04301        -6.53925        11.74147
   C      -12.39583        -5.47465        10.84887
   C      -12.32598        -5.38731         9.46679
   C      -12.68909        -4.19498         8.87150
   C      -13.09452        -3.12120         9.64374
   C      -11.48228        -7.78619        11.52136
   C      -11.15279        -8.56190        12.61911
   C      -11.40578        -8.10906        13.90207
   C      -12.02321        -6.87956        14.16281
   C      -12.37711        -6.56769        15.52841
   C      -11.57887        -6.79214        16.59731
   C      -11.99442        -6.54784        17.92912
   C      -11.18485        -6.40505        19.01766
   C       -9.75941        -6.19320        19.09735
   C       -8.99290        -5.54315        18.16018
   C       -7.60999        -5.31704        18.30014
   N       -6.47895        -5.13071        18.36702
   C       -9.54467        -4.91839        17.02431
   N       -9.97233        -4.34284        16.12675
   C       -9.34031        -6.54944        20.44843
   C      -10.49984        -6.75411        21.23950
   C      -11.70349        -6.59441        20.39351
   O      -12.86292        -6.65035        20.73720
   C      -10.43289        -7.06152        22.57596
   C       -9.16491        -7.18395        23.15567
   C       -8.01523        -6.98858        22.35435
   C       -8.08118        -6.66723        21.00366
   S       -6.55413        -7.19732        23.27141
   C       -7.49475        -7.53572        24.70023
   C       -8.83364        -7.49626        24.50282
  Br       -6.61993        -7.91078        26.31659
   H      -15.37936         4.98450        -1.14173
   H      -19.04160         3.28612         1.82651
   H      -17.34090         6.71883        -2.14204
   H      -14.58794         0.01931         2.58403
   H      -12.31202         3.00921         4.77025
   H      -13.45949         2.18073         3.71996
   H      -12.59594         5.11322         3.56858
   H      -14.18724         4.50348         4.03464
   H      -13.62715         4.35099         2.36207
   H       -9.38302         0.42975        -0.27232
   H      -11.19924        -1.21027        -0.68581
   H      -13.34430        -0.99112         0.46404
   H       -7.88002         2.43108         0.54315
   H       -6.87790         4.38682         1.70457
   H       -8.07374         5.46581         3.54079
   H      -10.27494         5.94326         4.66160
   H      -10.60655         3.15509         5.87970
   H      -11.20607         5.99543         6.91690
   H      -12.26620         6.00493         9.28231
   H      -13.17172         4.38379        11.06220
   H      -13.94066         2.53740        12.26522
   H      -14.50468         0.19722        13.15383
   H      -14.14940        -2.16817        12.69503
   H      -12.63434        -2.91938        13.87881
   H      -12.30120        -4.29635        14.92628
   H      -15.08117        -3.52923        13.85331
   H      -14.49596        -3.30623        15.50709
   H      -14.75231        -4.92662        14.85025
   H      -11.99769        -6.23175         8.88122
   H      -12.66177        -4.09213         7.79774
   H      -13.40119        -2.21764         9.14211
   H      -11.29257        -8.13310        10.51760
   H      -10.70223        -9.53273        12.47941
   H      -11.17349        -8.74766        14.74141
   H      -13.35387        -6.14168        15.70889
   H      -10.56696        -7.14037        16.43816
   H      -13.06044        -6.54273        18.13006
   H      -11.32958        -7.20320        23.15863
   H       -7.17971        -6.52954        20.42935
   H       -9.55971        -7.68010        25.27355
*
