# ORCA input file
# SCF done       -214.848076313714          0.000349147005
! CAM-B3LYP def2-SVP def2/J RIJCOSX Grid4 TightSCF
%maxcore 5000
%tddft
    Mode sTDDFT
    Ethresh 5.0
    maxcore 5000
end

%pal
  nprocs 6
  end
* xyz 0 1
   C      -13.88955         7.84821        -7.01596
   C      -14.94670         8.69054        -7.24289
   C      -15.78426         8.62816        -8.37543
   N      -16.49714         8.62732        -9.27503
   C      -15.33152         9.73022        -6.37188
   N      -15.67917        10.58657        -5.69091
   C      -13.45967         6.75972        -7.88934
   C      -12.32950         6.12125        -7.31231
   C      -11.70038         5.05218        -7.90490
   C      -12.20919         4.59735        -9.12532
   C      -13.33404         5.23790        -9.69558
   C      -13.97167         6.31699        -9.09369
   S      -13.78686         4.50609       -11.20394
   C      -12.47449         3.36584       -11.04951
   C      -11.73517         3.52358        -9.92600
  Br      -12.20503         2.07882       -12.38748
   C      -12.00304         6.79081        -6.04884
   O      -11.07955         6.53470        -5.28199
   C      -12.99476         7.85842        -5.88016
   C      -12.99195         8.68706        -4.78623
   N      -12.08969         8.53093        -3.80955
   C      -11.99340         9.27088        -2.67293
   S      -13.13263        10.54292        -2.34128
   C      -12.37113        10.80009        -0.80706
   N      -12.88168        11.80907         0.02301
   O      -12.34297        11.97661         1.10030
   O      -13.83044        12.44149        -0.40296
   C      -11.32010         9.95680        -0.57110
   C      -11.06820         9.07575        -1.64153
   C      -10.00355         8.10150        -1.58442
   C       -9.34986         7.56355        -2.62862
   C       -8.33628         6.53651        -2.57192
   C       -7.94983         5.94892        -3.75283
   C       -7.00906         4.89715        -3.75639
   C       -6.48618         4.13256        -4.78417
   C       -6.78204         4.20806        -6.23776
   C       -8.30480         4.26777        -6.53550
   N       -8.74236         3.48405        -7.67619
   C       -6.04235         5.43574        -6.84872
   N       -6.17508         5.60188        -8.27313
   C       -5.54270         3.20814        -4.17996
   C       -4.71400         2.30757        -4.72868
   C       -3.87462         1.40483        -3.87249
   C       -3.88732         1.73970        -2.41265
   C       -4.69324         2.68198        -1.89258
   C       -5.55347         3.43410        -2.72811
   C       -6.43347         4.46494        -2.48468
   C       -6.83024         5.10957        -1.28751
   C       -7.75188         6.10107        -1.33388
   N       -2.50103         1.32835        -4.34186
   C       -2.07827         0.53373        -5.33127
   S       -3.20850        -0.42959        -6.22170
   C       -1.89547        -1.09257        -7.15730
   N       -2.23911        -2.03086        -8.12977
   O       -1.34624        -2.53727        -8.78164
   O       -3.43212        -2.27253        -8.24627
   C       -0.67511        -0.59365        -6.80408
   C       -0.74426         0.34448        -5.75266
   C        0.36870         1.00928        -5.15703
   C        1.67087         0.80132        -5.47341
   C        2.71735         1.49413        -4.82248
   C        4.04638         1.47632        -5.12111
   C        4.77945         0.95306        -6.25377
   C        4.32840         0.84932        -7.54433
   C        5.12361         0.39396        -8.61678
   N        5.72675         0.01564        -9.51682
   C        3.06132         1.29289        -7.97702
   N        2.06158         1.68264        -8.38502
   C        6.16530         0.78122        -5.82772
   C        6.33174         1.39682        -4.56068
   C        5.03180         1.92470        -4.10193
   O        4.79494         2.54570        -3.09043
   C        7.54296         1.43619        -3.91369
   C        8.63765         0.83024        -4.53928
   C        8.45741         0.20524        -5.79680
   C        7.23466         0.17276        -6.45634
   S        9.93675        -0.49209        -6.38185
   C       10.76777         0.06125        -4.95212
   C        9.97929         0.73244        -4.07919
  Br       12.59588        -0.30194        -4.74576
   H      -10.84297         4.57017        -7.46173
   H      -14.82660         6.77324        -9.56374
   H      -10.89004         2.91570        -9.66049
   H      -13.70731         9.49117        -4.67211
   H      -11.44652         7.73429        -3.94232
   H      -10.74465         9.99018         0.33655
   H       -9.72516         7.82834        -0.57629
   H       -9.57203         7.89610        -3.63310
   H       -8.39500         6.27642        -4.67864
   H       -6.38149         3.30632        -6.71994
   H       -8.60454         5.30375        -6.71797
   H       -8.85888         3.90898        -5.66503
   H       -8.23759         3.74686        -8.51692
   H       -8.58016         2.49576        -7.51352
   H       -4.97632         5.34425        -6.62174
   H       -6.41374         6.34287        -6.36627
   H       -5.81352         4.80219        -8.77978
   H       -7.13736         5.76297        -8.54508
   H       -4.62957         2.15806        -5.79581
   H       -4.30013         0.38999        -3.99982
   H       -3.22126         1.15838        -1.79446
   H       -4.68382         2.88442        -0.83217
   H       -6.39469         4.79919        -0.34939
   H       -8.04919         6.59328        -0.42146
   H       -1.84021         1.94979        -3.90041
   H        0.22774        -0.89312        -7.30273
   H        0.15023         1.75269        -4.40033
   H        1.93043         0.06907        -6.22109
   H        2.45978         2.05092        -3.92680
   H        7.64375         1.91859        -2.95416
   H        7.14345        -0.32026        -7.41005
   H       10.32748         1.14159        -3.14845
*
