# ORCA input file
# SCF done       -146.704031730279          0.000665942764
! CAM-B3LYP def2-SVP def2/J RIJCOSX Grid4 TightSCF
%maxcore 5000
%tddft
    Mode sTDDFT
    Ethresh 5.0
    maxcore 5000
end

%pal
  nprocs 6
  end
* xyz 0 1
   C        2.27172       -22.22951       -10.42012
   C        2.30907       -20.89149       -10.39391
   C        1.49163       -19.97371       -11.13715
   C        1.75546       -18.67123       -10.90225
   C        2.80030       -18.44479        -9.95949
   S        3.43557       -19.97431        -9.38063
   C        3.27967       -17.23549        -9.52889
   C        2.85320       -15.93726        -9.91468
   C        3.52143       -14.92472        -9.31151
   C        4.53148       -15.35192        -8.40363
   S        4.57710       -17.11794        -8.34910
   C        5.35654       -14.55720        -7.67462
   N        6.33068       -15.04383        -6.84780
   C        7.09823       -14.33375        -5.98515
   S        8.64855       -14.97480        -5.52276
   C        8.94641       -13.54356        -4.58216
   N       10.13894       -13.47051        -3.86999
   O       10.34728       -12.46570        -3.20814
   O       10.89486       -14.42813        -3.95803
   C        7.91388       -12.64165        -4.63194
   C        6.83562       -13.07951        -5.41629
   C        5.56607       -12.39362        -5.51796
   C        5.39678       -11.06862        -5.40131
   C        4.12466       -10.38709        -5.49557
   C        2.93400       -10.81718        -5.06232
   C        2.70700       -12.09067        -4.30593
   C        1.68214       -10.01372        -5.33078
   N        0.77964       -10.73558        -6.20560
   C        0.95030       -10.74824        -7.55230
   C        0.51503       -11.73597        -8.36308
   C        0.56852       -11.71035        -9.78707
   S        0.54385       -13.23557       -10.65357
   C        0.67917       -12.45216       -12.19484
   C        0.72620       -11.11743       -12.04062
   C        0.65286       -10.66523       -10.69074
   C        0.58990        -9.23957       -10.55261
   C        0.64879        -8.53805       -11.70462
   S        0.81606        -9.67756       -13.09998
   O        2.11598        -9.57863       -13.70942
   O       -0.32519        -9.61143       -13.97282
   C        0.57555        -7.14529       -11.96886
   C        0.38683        -6.09303       -11.08156
   C        0.36103        -4.87746       -11.82485
   C        0.19312        -3.56923       -11.43404
   C        0.21005        -2.58218       -12.43346
   C        0.06846        -1.20040       -12.36768
   C        0.16267        -0.65865       -13.68504
   C        0.36318        -1.70911       -14.56454
   C        0.39936        -2.93218       -13.82570
   C        0.56661        -4.23491       -14.21894
   C        0.54779        -5.22730       -13.21818
   C        0.67687        -6.60487       -13.29091
   C        0.06857         0.73195       -14.06151
   C       -0.12267         1.75037       -13.22785
   H        1.57138       -22.74646       -11.05211
   H        2.93333       -22.82655        -9.81974
   H        0.74072       -20.33775       -11.81574
   H        1.23964       -17.85151       -11.37001
   H        2.05967       -15.79226       -10.62447
   H        3.32983       -13.88041        -9.48095
   H        5.28062       -13.48436        -7.75470
   H        6.55462       -16.02633        -6.96117
   H        7.93321       -11.71968        -4.08036
   H        4.71224       -13.02515        -5.71203
   H        6.26383       -10.42869        -5.30381
   H        4.17731        -9.40531        -5.95172
   H        1.90454       -11.95595        -3.58124
   H        3.60885       -12.39035        -3.77783
   H        2.42074       -12.90380        -4.97476
   H        1.92874        -9.06134        -5.80471
   H        1.15153        -9.81118        -4.39438
   H        0.39356       -11.58209        -5.80998
   H        1.44375        -9.87566        -7.95423
   H        0.11702       -12.64107        -7.92335
   H        0.70754       -13.03640       -13.09143
   H        0.46108        -8.77422        -9.58879
   H        0.27113        -6.17061       -10.01640
   H        0.05123        -3.29977       -10.39648
   H       -0.08829        -0.62971       -11.47054
   H        0.47413        -1.62924       -15.63065
   H        0.70633        -4.50730       -15.25528
   H        0.82580        -7.20033       -14.17237
   H        0.16691         0.92208       -15.12315
   H       -0.22669         1.61263       -12.16537
   H       -0.18165         2.76457       -13.58280
*
