# ORCA input file
# SCF done       -174.684135155999          0.000239953403
! CAM-B3LYP def2-SVP def2/J RIJCOSX Grid4 TightSCF
%maxcore 5000
%tddft
    Mode sTDDFT
    Ethresh 5.0
    maxcore 5000
end

%pal
  nprocs 6
  end
* xyz 0 1
   C        6.56803        -0.78390        -8.31673
   C        6.03812        -0.67352        -7.08995
   C        5.62909         0.52173        -6.41200
   C        5.12026         0.31531        -5.17550
   C        5.08776        -1.04820        -4.77710
   S        5.73369        -2.06882        -6.04267
   C        4.61912        -1.56077        -3.58555
   C        4.05922        -0.86420        -2.49297
   C        3.66871        -1.67353        -1.46829
   C        3.90671        -3.05262        -1.67902
   S        4.65001        -3.28079        -3.24998
   C        3.47234        -4.04429        -0.82014
   C        3.61309        -5.43067        -0.86451
   S        2.40182        -6.36312        -0.01555
   C        3.03122        -7.88996        -0.56839
   C        4.20737        -7.67664        -1.32884
   C        4.54859        -6.30256        -1.47819
   C        5.76534        -5.96258        -2.08757
   C        6.55517        -6.95657        -2.59966
   F        7.72543        -6.63859        -3.17907
   C        6.17547        -8.30928        -2.51662
   F        6.97772        -9.24520        -3.04884
   C        5.02202        -8.67814        -1.87831
   C        2.42503        -9.11049        -0.30254
   C        1.25940        -9.28857         0.40724
   C        0.68350       -10.55168         0.55845
   N       -0.51019       -10.78917         1.21229
   C       -1.31943        -9.79862         1.86704
   C       -0.88752       -12.13291         1.15855
   O       -1.91118       -12.56739         1.66240
   C        0.17309       -12.77516         0.41686
   C        1.12329       -11.79543         0.07174
   C        2.18218       -12.43739        -0.67302
   O        3.20874       -12.00423        -1.17234
   N        1.79919       -13.77857        -0.73689
   C        2.59940       -14.76568        -1.40770
   C        0.59165       -14.01123        -0.10679
   C       -0.05662       -15.24727        -0.08727
   C       -1.28165       -15.41191         0.51882
   C       -2.03775       -16.57614         0.49745
   S       -1.54097       -18.02457        -0.33321
   C       -3.04065       -18.85623        -0.00933
   C       -3.87414       -18.05213         0.81202
   C       -3.31604       -16.76973         1.07831
   C       -4.01121       -15.83577         1.86074
   C       -5.22035       -16.19545         2.39291
   F       -5.90704       -15.32538         3.15072
   C       -5.74993       -17.48129         2.17979
   F       -6.91675       -17.81475         2.75900
   C       -5.09648       -18.40310         1.40533
   C       -3.22865       -20.10141        -0.60753
   C       -4.41742       -20.77642        -0.78465
   C       -4.50504       -22.00541        -1.42811
   C       -5.69470       -22.65037        -1.70937
   C       -5.85641       -23.88410        -2.37436
   C       -7.15543       -24.26661        -2.54223
   C       -8.09255       -23.35135        -2.01561
   S       -7.26390       -21.99005        -1.28940
   C       -9.46971       -23.43550        -2.04001
   C      -10.25964       -24.46936        -2.61015
   C      -11.59438       -24.27840        -2.49533
   C      -11.96206       -23.06913        -1.81902
   S      -10.49417       -22.20090        -1.34244
   C      -13.19614       -22.61302        -1.55946
   H        6.73490         0.08884        -8.92302
   H        6.84010        -1.73709        -8.73124
   H        5.73492         1.48322        -6.88202
   H        4.76516         1.09699        -4.52764
   H        3.95191         0.20537        -2.49223
   H        3.21495        -1.32019        -0.55892
   H        2.82484        -3.68581        -0.02673
   H        6.10689        -4.94408        -2.13999
   H        4.76459        -9.72180        -1.79407
   H        2.90492        -9.98664        -0.71551
   H        0.76109        -8.43010         0.83672
   H       -1.66106        -9.04078         1.15861
   H       -0.76770        -9.31579         2.67621
   H       -2.18365       -10.31871         2.28060
   H        3.49027       -14.25529        -1.77410
   H        2.06092       -15.19960        -2.25310
   H        2.89567       -15.56047        -0.72013
   H        0.40447       -16.08723        -0.58895
   H       -1.71301       -14.56250         1.02978
   H       -3.60964       -14.85404         2.05401
   H       -5.52224       -19.38548         1.29780
   H       -2.34212       -20.54233        -1.04861
   H       -5.34628       -20.32213        -0.47396
   H       -3.59329       -22.49485        -1.74543
   H       -5.00834       -24.45273        -2.71366
   H       -7.45876       -25.17551        -3.02981
   H       -9.80861       -25.32040        -3.08888
   H      -12.34694       -24.95094        -2.86670
   H      -14.06330       -23.17061        -1.86629
   H      -13.35847       -21.68580        -1.04136
*
