# ORCA input file
# SCF done       -191.429780024182          0.000584519011
! CAM-B3LYP def2-SVP def2/J RIJCOSX Grid4 TightSCF
%maxcore 5000
%tddft
    Mode sTDDFT
    Ethresh 5.0
    maxcore 5000
end

%pal
  nprocs 6
  end
* xyz 0 1
   C        7.74661         5.79527        -3.07199
   S        6.15642         5.47870        -2.52232
   C        5.84060         7.16412        -2.26945
   C        6.95517         7.93065        -2.61008
   C        8.04947         7.12880        -3.07157
   O        9.27957         7.51246        -3.48401
   C        9.62182         8.87941        -3.48045
   C        6.97352         9.32694        -2.50037
   N        6.98565        10.47375        -2.41035
   C        4.55396         7.52176        -1.76956
   C        4.10511         8.76934        -1.52135
   C        2.80544         9.12394        -1.00636
   C        2.51795        10.48863        -0.82872
   C        1.29832        10.87175        -0.33070
   C        0.33111         9.90823         0.00584
   C        0.59939         8.55721        -0.16850
   C        1.82652         8.17777        -0.67059
   C       -0.83900        10.58692         0.51197
   C       -0.60150        11.97290         0.48778
   C        0.77846        12.26419        -0.05635
   C        0.70824        13.09894        -1.34849
   C       -0.14069        12.44234        -2.43047
   C        1.64984        12.99358         0.98265
   C        1.76863        12.22840         2.29523
   C       -1.55946        12.85173         0.92606
   C       -2.78730        12.36833         1.41530
   C       -3.00615        10.98029         1.42385
   C       -2.05017        10.09397         0.97830
   C       -3.76521        13.30861         1.89014
   C       -4.93882        12.99388         2.49479
   C       -5.88826        13.92224         2.96456
   C       -7.04768        13.53893         3.58657
   C       -8.08665        14.35549         4.10123
   C       -9.11861        13.66836         4.66392
   C       -8.95907        12.26384         4.63175
   S       -7.44555        11.84622         3.85642
   C       -9.79516        11.27477         5.10036
   C      -11.05736        11.38104         5.72962
   C      -11.61396        10.18446         6.05199
   C      -10.83302         9.04330         5.70261
   S       -9.33795         9.59051         4.95228
   C      -11.21995         7.74617         5.87224
   C      -10.52722         6.53894         5.53236
   C      -11.26158         5.33587         5.48796
   C      -10.64510         4.17135         5.11031
   C       -9.27496         4.15894         4.78993
   C       -8.52831         5.32548         4.87158
   C       -9.15488         6.49681         5.23727
   C       -8.90022         2.81789         4.40933
   C      -10.03539         1.99297         4.49142
   C      -11.23559         2.78760         4.95511
   C      -12.35878         2.77311         3.90211
   C      -11.90063         3.28875         2.54320
   C      -11.77631         2.25461         6.29471
   C      -10.72017         2.23770         7.39315
   C       -9.95298         0.66264         4.16381
   C       -8.72815         0.11975         3.73928
   C       -7.60568         0.95738         3.67100
   C       -7.68140         2.29376         4.00110
   C       -8.67819        -1.27666         3.38302
   C       -7.60636        -1.94960         2.92140
   C       -7.60838        -3.32869         2.56944
   S       -9.00707        -4.34733         2.69081
   C       -8.14897        -5.72556         2.09618
   C       -6.82204        -5.40443         1.81385
   C       -6.51840        -4.04020         2.08441
   O       -5.34832        -3.37740         1.93397
   C       -4.21541        -4.05691         1.44518
   C       -5.91202        -6.34966         1.31579
   N       -5.17021        -7.12548         0.90529
   C       -8.87555        -6.95741         1.97616
   C       -8.41133        -8.13065         1.54623
   H        8.39283         4.99662        -3.37164
   H       10.64902         8.91940        -3.83990
   H        9.57213         9.30550        -2.47475
   H        8.97986         9.45801        -4.15021
   H        3.91175         6.67003        -1.58982
   H        4.75965         9.60619        -1.71577
   H        3.26866        11.22198        -1.08682
   H       -0.14030         7.81284         0.08650
   H        2.03329         7.12704        -0.80237
   H        1.72278        13.24725        -1.72418
   H        0.29358        14.08038        -1.10824
   H        0.26841        11.47202        -2.70337
   H       -0.16388        13.06845        -3.31952
   H       -1.16159        12.29845        -2.08329
   H        1.21545        13.97709         1.17469
   H        2.64524        13.14454         0.55985
   H        0.78932        12.08558         2.74693
   H        2.39377        12.77926         2.99430
   H        2.21592        11.25062         2.13028
   H       -1.38128        13.91802         0.90994
   H       -3.94698        10.59273         1.78146
   H       -2.24180         9.03123         0.99391
   H       -3.51842        14.35563         1.75996
   H       -5.19536        11.95488         2.65333
   H       -5.70287        14.97990         2.83333
   H       -8.03484        15.42848         4.03644
   H       -9.98717        14.12812         5.10163
   H      -11.51732        12.33518         5.91745
   H      -12.57125        10.07132         6.53069
   H      -12.21448         7.61142         6.28235
   H      -12.31494         5.35186         5.73130
   H       -7.47147         5.32005         4.65092
   H       -8.56526         7.39461         5.32019
   H      -13.18526         3.38894         4.26360
   H      -12.72654         1.75014         3.79643
   H      -11.54430         4.31347         2.62207
   H      -12.72593         3.26418         1.83509
   H      -11.09243         2.67447         2.15238
   H      -12.15536         1.24190         6.14086
   H      -12.61462         2.88108         6.60750
   H       -9.88225         1.60456         7.10976
   H      -11.14607         1.85281         8.31707
   H      -10.34352         3.24122         7.57857
   H      -10.82226         0.02238         4.22201
   H       -6.65889         0.55051         3.35181
   H       -6.80601         2.92307         3.93929
   H       -9.60901        -1.82170         3.49610
   H       -6.65040        -1.46697         2.78101
   H       -3.42076        -3.31236         1.42245
   H       -4.38075        -4.44247         0.43561
   H       -3.92340        -4.87973         2.10309
   H       -9.91209        -6.87545         2.28053
   H       -7.39427        -8.27503         1.23145
   H       -9.05732        -8.98977         1.50074
*
