# ORCA input file
# SCF done       -230.068691605746          0.000821536561
! CAM-B3LYP def2-SVP def2/J RIJCOSX Grid4 TightSCF
%maxcore 5000
%tddft
    Mode sTDDFT
    Ethresh 5.0
    maxcore 5000
end

%pal
  nprocs 6
  end
* xyz 0 1
   C       -1.40302        -0.57032        -1.80354
   C       -1.24351        -0.75181        -3.15139
   C       -0.70720        -1.92035        -3.73260
   N       -0.28351        -2.84751        -4.26024
   C       -1.55586         0.20495        -4.14113
   N       -1.76723         0.93374        -5.00283
   C       -1.00115        -1.50810        -0.76526
   C       -1.18458        -0.89310         0.49682
   C       -0.89298        -1.52787         1.67995
   C       -0.39534        -2.83300         1.61447
   C       -0.21811        -3.44163         0.34824
   C       -0.51331        -2.79996        -0.84749
   S        0.40041        -5.05850         0.49770
   C        0.41426        -4.89680         2.23383
   C       -0.02171        -3.69515         2.68122
  Br        1.00127        -6.32967         3.29157
   C       -1.72287         0.47050         0.31617
   O       -1.99833         1.24873         1.20136
   C       -1.91989         0.62487        -1.15142
   C       -2.65817         1.58914        -1.76037
   C       -3.14239         2.82263        -1.20107
   C       -4.38089         3.31134        -1.65483
   C       -4.87849         4.47700        -1.13269
   C       -4.13540         5.20846        -0.18571
   C       -2.88779         4.76083         0.22832
   C       -2.40329         3.57106        -0.27428
   C       -4.88909         6.38733         0.17529
   C       -6.10215         6.37966        -0.53854
   C       -6.18860         5.16555        -1.43198
   C       -6.28572         5.57063        -2.91535
   C       -5.13496         6.46383        -3.36317
   C       -7.38831         4.27418        -1.05940
   C       -7.36242         3.82399         0.39635
   C       -7.01276         7.39147        -0.37274
   C       -6.72572         8.45559         0.50205
   C       -5.50917         8.44784         1.20472
   C       -4.59732         7.42557         1.05217
   C       -7.70587         9.49892         0.63363
   C       -7.53819        10.67615         1.28118
   C       -8.50146        11.72079         1.40900
   C       -9.86698        11.66350         1.02998
   C      -10.73926        12.80969         1.16057
   N      -11.97944        12.76141         0.64552
   C      -12.43346        11.64192         0.15233
   C      -11.62279        10.45786         0.17047
   N      -10.37590        10.51361         0.56605
   C      -12.14585         9.21779        -0.26843
   N      -12.58572         8.22575        -0.63674
   C      -13.74130        11.61248        -0.39233
   N      -14.80623        11.56059        -0.81169
   C      -10.31711        14.01480         1.75258
   C       -8.97826        14.06448         2.17211
   C       -8.09041        12.94186         1.98962
   N       -6.86602        13.20244         2.45907
   S       -6.84532        14.68089         3.07394
   N       -8.36938        15.07972         2.79512
   C      -11.21487        15.13661         1.89866
   C      -10.79441        16.45233         1.63280
   C      -11.66692        17.58780         1.81713
   N      -11.14630        18.82267         1.77257
   C       -9.89260        18.98877         1.44235
   C       -9.09714        17.86525         1.02694
   N       -9.55763        16.65120         1.14807
   C       -7.79115        18.05269         0.51035
   N       -6.72200        18.21728         0.13356
   C       -9.33882        20.29121         1.48794
   N       -8.87093        21.33628         1.52457
   C      -13.03365        17.43185         2.13903
   C      -13.44223        16.11385         2.42243
   C      -12.54768        14.98476         2.31397
   N      -13.14901        13.84710         2.67909
   S      -14.67025        14.15800         3.06265
   N      -14.66123        15.74053         2.82223
   C      -13.95510        18.52260         2.23911
   S      -15.22088        18.44424         3.42940
   C      -15.84113        19.98659         2.94394
   C      -15.11432        20.50412         1.88531
   C      -14.05009        19.68070         1.48382
   C      -13.20907        20.02566         0.30373
   C      -13.91902        20.99461        -0.64220
   C      -12.95432        21.32712        -1.79331
   O      -11.95185        20.69625        -1.98182
   O      -13.32003        22.32008        -2.59425
   C      -14.39527        22.21408         0.15790
   O      -14.97237        23.16612        -0.72898
   C      -15.44853        21.78831         1.19151
   C      -16.97733        20.57890         3.59223
   C      -17.65904        20.01307         4.58655
   H       -1.04439        -1.03189         2.62586
   H       -0.36793        -3.30754        -1.78637
   H       -0.07919        -3.42642         3.72016
   H       -2.97421         1.40554        -2.78136
   H       -4.93905         2.74466        -2.38623
   H       -2.30358         5.33165         0.93360
   H       -1.42659         3.22683         0.02247
   H       -7.23201         6.09190        -3.07246
   H       -6.29869         4.66472        -3.52441
   H       -5.11512         7.38633        -2.78689
   H       -5.24869         6.71816        -4.41410
   H       -4.18065         5.95782        -3.23439
   H       -7.38695         3.39771        -1.71057
   H       -8.30841         4.82983        -1.25017
   H       -6.46305         3.24965         0.60839
   H       -8.22693         3.19935         0.60785
   H       -7.38720         4.68155         1.06508
   H       -7.94926         7.38951        -0.91166
   H       -5.28778         9.25238         1.88823
   H       -3.67050         7.43191         1.60577
   H       -8.65232         9.30988         0.14774
   H       -6.58622        10.92060         1.73268
   H      -12.92974        19.12506        -0.24498
   H      -12.28018        20.49664         0.63641
   H      -14.79648        20.51676        -1.09577
   H      -14.09180        22.79932        -2.23176
   H      -13.52633        22.65913         0.66551
   H      -15.21211        23.95737        -0.23569
   H      -16.40065        21.66924         0.66145
   H      -15.57787        22.58810         1.92671
   H      -17.27186        21.55093         3.21966
   H      -17.38767        19.04365         4.96989
   H      -18.50331        20.49959         5.04115
*
