# ORCA input file
# SCF done       -179.114255696776          0.000837420369
! CAM-B3LYP def2-SVP def2/J RIJCOSX Grid4 TightSCF
%maxcore 5000
%tddft
    Mode sTDDFT
    Ethresh 5.0
    maxcore 5000
end

%pal
  nprocs 6
  end
* xyz 0 1
   C       -8.60688        -0.29016         3.03638
   C       -7.57412        -1.06812         2.56594
   C       -7.48539        -2.46091         2.75264
   N       -7.36328        -3.59852         2.85745
   C       -6.46560        -0.58580         1.84351
   N       -5.52485        -0.26290         1.26734
   C       -9.71672        -0.76331         3.85874
   C      -10.54256         0.34056         4.18092
   C      -11.66390         0.22547         4.96352
   C      -11.98464        -1.04342         5.45890
   C      -11.15746        -2.14126         5.12819
   C      -10.02353        -2.02428         4.33231
   S      -11.73919        -3.61640         5.84005
   C      -13.06501        -2.74706         6.56588
   C      -13.07517        -1.42217         6.28941
  Br      -14.31438        -3.67272         7.61480
   C       -9.99417         1.56110         3.55727
   O      -10.52697         2.65320         3.52410
   C       -8.75046         1.13501         2.87851
   C       -7.98818         1.94701         2.06562
   C       -7.96671         3.34504         2.10391
   S       -7.56661         4.24387         0.66952
   C       -7.84741         5.77533         1.42896
   C       -8.17597         5.59774         2.78593
   C       -8.20930         4.22933         3.17559
   C       -8.37516         3.90749         4.52486
   C       -8.62501         4.88192         5.46684
   C       -8.80641         4.39818         6.87157
   O       -8.69136         3.23353         7.15421
   O       -9.10719         5.30080         7.80716
   C       -8.68796         6.24185         5.05216
   O       -8.96374         7.21253         5.98107
   C       -8.43766         6.58801         3.74762
   C       -7.75926         6.99760         0.72126
   C       -7.29972         7.12105        -0.54626
   C       -7.19930         8.34090        -1.29565
   C       -8.00984         9.41008        -1.24633
   C       -9.27328         9.49998        -0.45116
   C       -7.71688        10.64047        -2.07911
   N       -6.32624        10.81381        -2.38779
   C       -5.77999        10.71129        -3.61684
   C       -4.44065        10.72993        -3.85406
   C       -3.87461        10.69965        -5.13945
   C       -2.52649        10.72938        -5.39211
   C       -1.88502        10.74001        -6.65214
   C       -0.52400        10.79268        -6.59103
   C       -0.00864        10.81674        -5.27791
   S       -1.31382        10.77625        -4.11452
   C        1.31660        10.86326        -4.88274
   C        2.46612        10.94068        -5.69550
   C        3.63491        10.97543        -4.99571
   C        3.48612        10.91762        -3.58732
   S        1.77469        10.82971        -3.19442
   C        4.52151        10.93017        -2.68635
   C        4.48805        10.83925        -1.28020
   C        5.61823        10.88443        -0.45945
   C        5.21193        10.74325         0.89072
   C        5.92107        10.71793         2.06911
   C        5.20009        10.54790         3.26526
   C        5.61185        10.47709         4.58476
   C        4.46393        10.28762         5.42422
   C        3.34570        10.24353         4.61640
   C        3.75331        10.40243         3.25332
   C        3.04320        10.43060         2.08637
   C        3.76454        10.60329         0.88273
   C        3.34053        10.66601        -0.42681
   C        4.45549        10.16075         6.86111
   C        5.52504        10.20887         7.65063
   H      -12.26839         1.08789         5.19577
   H       -9.42574        -2.89206         4.10887
   H      -13.81813        -0.73738         6.65558
   H       -7.38430         1.48377         1.29498
   H       -8.28852         2.88987         4.87050
   H       -9.16345         6.19854         7.43857
   H       -8.96503         8.08032         5.55907
   H       -8.43675         7.63199         3.46434
   H       -8.04450         7.88057         1.27327
   H       -6.91564         6.23506        -1.03703
   H       -6.38287         8.36182        -2.00915
   H       -9.66194         8.51083        -0.22505
   H      -10.02397        10.05457        -1.01294
   H       -9.10733        10.03191         0.48650
   H       -8.07174        11.52096        -1.52644
   H       -8.27850        10.59549        -3.01830
   H       -5.69183        10.81798        -1.60233
   H       -6.48384        10.64748        -4.43547
   H       -3.75991        10.78430        -3.01436
   H       -4.53966        10.66140        -5.99222
   H       -2.45115        10.71264        -7.56680
   H        0.11953        10.80978        -7.45235
   H        2.40272        10.97348        -6.76846
   H        4.60925        11.03623        -5.44842
   H        5.51066        11.01541        -3.12190
   H        6.63171        11.00548        -0.79528
   H        6.99690        10.82141         2.08608
   H        6.62672        10.55001         4.93027
   H        2.33066        10.10999         4.94376
   H        1.96758        10.32387         2.06607
   H        2.32278        10.58988        -0.76094
   H        3.47510        10.01580         7.29861
   H        6.51901        10.35437         7.26414
   H        5.44080        10.10794         8.71883
*
