# ORCA input file
# SCF done       -193.472861595782          0.000492802415
! CAM-B3LYP def2-SVP def2/J RIJCOSX Grid4 TightSCF
%maxcore 5000
%tddft
    Mode sTDDFT
    Ethresh 5.0
    maxcore 5000
end

%pal
  nprocs 6
  end
* xyz 0 1
   C       -5.65119         7.61412         7.47477
   C       -6.13631         8.75212         8.06315
   C       -5.75581         9.19913         9.34607
   N       -5.48402         9.61578        10.38055
   C       -7.11441         9.60379         7.50607
   N       -7.92323        10.32963         7.13542
   C       -4.73202         6.66739         8.09173
   C       -4.62797         5.53132         7.25280
   C       -3.82903         4.45538         7.55750
   C       -3.09453         4.50581         8.74591
   C       -3.20631         5.64405         9.58006
   C       -4.01625         6.73058         9.27281
   S       -2.21330         5.49450        10.99742
   C       -1.66911         3.92769        10.45640
   C       -2.20178         3.53452         9.27511
  Br       -0.44874         2.96362        11.50333
   C       -5.48328         5.71506         6.06592
   O       -5.65777         4.88856         5.19177
   C       -6.02673         7.08750         6.17099
   C       -6.59499         7.84358         5.18250
   C       -7.01916         7.47008         3.88852
   S       -7.24414         8.76313         2.70866
   C       -7.66129         7.61923         1.47592
   C       -7.68401         6.30387         1.99353
   C       -7.32296         6.24089         3.34636
   C       -8.03213         5.25374         1.11502
   C       -8.22005         5.55394        -0.23950
   S       -8.69832         4.13585        -1.12629
   C       -8.60050         3.17553         0.30207
   C       -8.23540         3.87782         1.39875
   C       -8.08176         6.85722        -0.76474
   C       -7.87140         7.89844         0.13054
   C       -8.04790         7.08653        -2.19971
   C       -7.18132         6.41073        -2.99569
   C       -6.98872         6.49868        -4.40800
   C       -5.96838         5.74003        -4.88514
   C       -5.27483         5.01100        -3.88682
   S       -5.97585         5.31901        -2.31537
   C       -4.19798         4.15590        -3.96305
   C       -3.42262         3.70178        -5.05419
   C       -2.42010         2.85164        -4.69820
   C       -2.32944         2.58410        -3.30382
   S       -3.59864         3.45882        -2.47320
   C       -1.40490         1.78404        -2.68210
   C       -1.29281         1.54968        -1.29592
   S       -0.01772         0.48952        -0.70388
   C       -0.49866         0.75507         0.94743
   C       -1.61285         1.62320         1.01023
   C       -2.04258         2.05080        -0.24990
   C       -2.13815         1.94285         2.28005
   C       -1.52676         1.39481         3.41288
   S       -2.31239         1.93790         4.86099
   C       -3.45113         2.85892         3.94014
   C       -3.24235         2.77479         2.60832
   C       -0.39270         0.55605         3.34495
   C        0.10075         0.23232         2.07607
   C        0.16831         0.01913         4.54575
   C        1.43620        -0.40191         4.78966
   C        2.68360        -0.22806         4.07368
   C        3.02184         0.83172         3.27211
   C        4.28812         0.99039         2.67479
   N        5.29807         1.15069         2.15308
   C        2.17367         1.93074         3.02582
   N        1.55045         2.87621         2.83747
   C        3.61391        -1.23453         4.57434
   C        3.04871        -1.84540         5.72240
   C        1.69966        -1.29087         5.95428
   O        0.94298        -1.53393         6.86596
   C        3.71147        -2.80568         6.44730
   C        4.98469        -3.18915         6.01248
   C        5.53198        -2.58548         4.85507
   C        4.86641        -1.60771         4.12598
   S        7.10909        -3.21616         4.49011
   C        7.01678        -4.26283         5.88192
   C        5.86417        -4.14983         6.58327
  Br        8.45029        -5.40615         6.27556
   H       -3.76368         3.59795         6.90634
   H       -4.06255         7.57823         9.93578
   H       -1.97485         2.60156         8.79222
   H       -6.69167         8.90506         5.38106
   H       -7.27501         5.32788         3.90753
   H       -8.82627         2.12941         0.23325
   H       -8.12086         3.44897         2.37722
   H       -7.79240         8.91165        -0.23117
   H       -8.65539         7.87599        -2.61765
   H       -7.62352         7.11965        -5.01514
   H       -5.68609         5.68295        -5.92173
   H       -3.62633         4.01238        -6.06359
   H       -1.73007         2.40510        -5.39256
   H       -0.67848         1.29249        -3.31546
   H       -2.87298         2.71760        -0.37171
   H       -4.21395         3.41773         4.44789
   H       -3.84480         3.28401         1.87845
   H        0.92791        -0.45382         1.97880
   H       -0.52796        -0.12486         5.36775
   H        3.26337        -3.24674         7.32377
   H        5.31970        -1.17848         3.24768
   H        5.64099        -4.71916         7.46700
*
