# ORCA input file
# SCF done       -165.806594807412          0.000835674716
! CAM-B3LYP def2-SVP def2/J RIJCOSX Grid4 TightSCF
%maxcore 5000
%tddft
    Mode sTDDFT
    Ethresh 5.0
    maxcore 5000
end

%pal
  nprocs 6
  end
* xyz 0 1
   C        3.02422       -20.63762         0.96436
   C        2.65303       -19.36153         0.78975
   C        1.32400       -18.84086         0.65220
   C        1.26138       -17.50044         0.48513
   C        2.52464       -16.85242         0.45290
   S        3.81076       -18.02491         0.68020
   C        2.78558       -15.51719         0.26229
   C        1.86375       -14.44082         0.23483
   C        2.44136       -13.22700         0.04675
   C        3.84855       -13.27357        -0.14385
   S        4.41542       -14.93174         0.00447
   C        4.64204       -12.20435        -0.44638
   N        5.94431       -12.30174        -0.79340
   C        6.78032       -11.31252        -1.17174
   S        8.48379       -11.63158        -0.97541
   C        8.83822        -9.97878        -1.38769
   N       10.16979        -9.59508        -1.41124
   O       10.43882        -8.43444        -1.68113
   O       10.99895       -10.46334        -1.15041
   C        7.71593        -9.24440        -1.67969
   C        6.52784        -9.99169        -1.61417
   C        5.26886        -9.47732        -2.08548
   C        4.33392       -10.28789        -2.64495
   C        3.01506        -9.98877        -3.03930
   C        2.15147       -11.01848        -3.33509
   C        0.77568       -11.00955        -3.67197
   C        0.21198       -12.25029        -3.78479
   C        1.11238       -13.30800        -3.54121
   S        2.70513       -12.68210        -3.20943
   C        0.97788       -14.68530        -3.50593
   C       -0.06894       -15.56933        -3.83003
   C        0.28330       -16.88616        -3.74449
   C        1.62587       -17.11344        -3.33896
   S        2.40487       -15.58665        -3.04090
   C        2.23857       -18.33249        -3.17170
   C        3.55080       -18.61010        -2.74606
   C        4.69439       -17.82849        -2.55032
   C        4.99672       -16.56885        -3.07612
   N        5.40255       -15.60166        -3.54846
   C        5.75328       -18.55706        -1.93407
   C        5.44310       -19.90092        -1.78067
   S        3.85068       -20.29518        -2.29564
   S        6.72167       -20.87831        -1.13608
   C        7.69404       -19.44156        -1.04031
   C        7.06642       -18.27792        -1.45508
   C        7.89689       -17.13656        -1.23441
   C        7.45810       -15.81780        -1.29518
   N        7.09941       -14.72653        -1.22796
   C        9.15123       -17.47227        -0.73193
   S        9.30252       -19.19660        -0.46997
   C       10.24924       -16.61668        -0.42672
   C       11.43584       -17.01986         0.20332
   C       12.28344       -15.90056         0.32969
   C       13.55481       -15.76185         0.87194
   C       14.13131       -14.49659         0.84053
   C       15.37661       -14.02381         1.29248
   C       15.47275       -12.64358         1.01556
   C       14.28658       -12.24576         0.38923
   C       13.43178       -13.36938         0.26489
   C       12.16950       -13.49636        -0.27699
   C       11.58913       -14.77269        -0.24816
   C       10.35422       -15.22849        -0.70942
   C       16.58042       -11.76321         1.30773
   C       17.70116       -12.10953         1.93383
   H        2.28845       -21.41970         1.02298
   H        4.05679       -20.92067         1.05724
   H        0.47346       -19.49841         0.68409
   H        0.34839       -16.94594         0.35611
   H        0.80849       -14.59704         0.37001
   H        1.90492       -12.29545         0.00097
   H        4.20332       -11.21798        -0.42424
   H        6.34986       -13.25751        -0.81733
   H        7.76514        -8.21274        -1.97904
   H        5.11927        -8.40838        -2.02425
   H        4.60874       -11.32781        -2.77101
   H        2.65855        -8.96880        -3.05041
   H        0.23756       -10.08815        -3.81320
   H       -0.82284       -12.42681        -4.02123
   H       -1.03939       -15.21914        -4.13542
   H       -0.37598       -17.70580        -3.97131
   H        1.61594       -19.20489        -3.32801
   H       11.65579       -18.01852         0.53641
   H       14.07749       -16.60638         1.29985
   H       16.13060       -14.62327         1.76938
   H       14.04703       -11.25418         0.05120
   H       11.65220       -12.64636        -0.69765
   H        9.61944       -14.62863        -1.20942
   H       16.44782       -10.74202         0.97384
   H       17.87677       -13.11136         2.28631
   H       18.48698       -11.39746         2.11692
*
