# ORCA input file
# SCF done       -177.638219097023          0.000588149054
! CAM-B3LYP def2-SVP def2/J RIJCOSX Grid4 TightSCF
%maxcore 5000
%tddft
    Mode sTDDFT
    Ethresh 5.0
    maxcore 5000
end

%pal
  nprocs 6
  end
* xyz 0 1
   C       14.15983        -8.29584         1.16333
   C       13.39167        -7.26507         0.78758
   C       13.81660        -5.95977         0.36641
   C       12.80985        -5.11901         0.04664
   C       11.50790        -5.68017         0.18216
   S       11.62329        -7.34158         0.74157
   C       10.30569        -5.07475        -0.07235
   C       10.06826        -3.75025        -0.52654
   C        8.75843        -3.45110        -0.69285
   C        7.85146        -4.51293        -0.39074
   S        8.77955        -5.91383         0.14179
   C        6.50123        -4.42836        -0.54402
   C        5.48010        -5.41006        -0.33014
   C        5.71357        -6.64891         0.29027
   C        4.68548        -7.54649         0.42407
   C        3.39951        -7.25127        -0.05842
   C        3.14619        -6.02312        -0.65620
   C        4.17829        -5.11910        -0.77883
   C        2.53577        -8.37605         0.22088
   C        3.28224        -9.36327         0.89092
   C        4.72940        -8.94066         1.01268
   C        5.21978        -8.94001         2.46728
   C        4.39375        -8.01533         3.35433
   C        5.65363        -9.77943         0.09840
   C        5.71945       -11.27029         0.40192
   C        2.67036       -10.50710         1.34435
   C        1.30945       -10.72002         1.08191
   C        0.59667        -9.75092         0.36559
   C        1.18930        -8.57510        -0.04720
   C        0.61749       -11.91930         1.50857
   C        1.01398       -12.76404         2.47251
   C        0.30094       -13.95817         2.88307
   C        0.52043       -14.47293         4.16901
   C       -0.16609       -15.58780         4.58417
   C       -1.06669       -16.23389         3.72083
   C       -1.27392       -15.74937         2.43794
   C       -0.59483       -14.61743         2.03359
   C       -1.63839       -17.36798         4.41506
   C       -1.09970       -17.41673         5.71177
   C       -0.11631       -16.28856         5.92240
   C       -0.57122       -15.35313         7.05808
   C       -1.96613       -14.78307         6.83051
   C        1.29379       -16.82501         6.22901
   C        1.81979       -17.75556         5.14283
   C       -1.48890       -18.39569         6.59151
   C       -2.42734       -19.36306         6.19532
   C       -2.94927       -19.30198         4.89615
   C       -2.56550       -18.31707         4.00911
   C       -2.82266       -20.36916         7.15401
   C       -3.62401       -21.42467         6.91987
   C       -4.02653       -22.41261         7.88613
   C       -4.79226       -23.52394         7.44189
   N       -5.19284       -23.74798         6.19206
   S       -6.03618       -25.11496         6.15251
   N       -5.93289       -25.49557         7.71151
   C       -5.22618       -24.55852         8.34557
   C       -4.91861       -24.48194         9.72970
   C       -4.18521       -23.37613        10.12429
   C       -3.75028       -22.38527         9.24257
   C       -5.34648       -25.50592        10.67412
   C       -5.50586       -25.22966        12.05985
   N       -5.33249       -24.07026        12.69503
   S       -5.66970       -24.26945        14.25541
   N       -6.05114       -25.82760        14.21874
   C       -5.93512       -26.26767        12.96479
   C       -6.18660       -27.56925        12.50421
   C       -6.02152       -27.80762        11.16760
   C       -5.61686       -26.80056        10.27634
   H       15.23173        -8.20690         1.17314
   H       13.73649        -9.23799         1.45961
   H       14.86273        -5.71262         0.32393
   H       12.94843        -4.10544        -0.28663
   H       10.87540        -3.06588        -0.71842
   H        8.39277        -2.49780        -1.03345
   H        6.14694        -3.47666        -0.92461
   H        6.69186        -6.88589         0.67496
   H        2.15850        -5.77939        -1.01905
   H        3.99324        -4.16126        -1.24480
   H        6.26531        -8.62555         2.48612
   H        5.16561        -9.95473         2.86405
   H        4.45521        -6.98850         3.00087
   H        4.75996        -8.04963         4.37807
   H        3.34793        -8.31593         3.35144
   H        6.65820        -9.35608         0.16803
   H        5.31177        -9.64755        -0.93179
   H        6.05250       -11.45365         1.42004
   H        6.42997       -11.74219        -0.27360
   H        4.75122       -11.74091         0.25435
   H        3.22799       -11.25023         1.89228
   H       -0.44979        -9.92326         0.15545
   H        0.61503        -7.82555        -0.57156
   H       -0.32482       -12.10061         1.00728
   H        1.90625       -12.54307         3.04419
   H        1.21656       -13.97305         4.82835
   H       -1.95448       -16.24846         1.76395
   H       -0.74117       -14.24483         1.03101
   H        0.14517       -14.53320         7.14413
   H       -0.55590       -15.90975         7.99774
   H       -1.99916       -14.20708         5.90832
   H       -2.24328       -14.12983         7.65488
   H       -2.70090       -15.58223         6.76171
   H        1.26528       -17.35932         7.18126
   H        1.97409       -15.97805         6.34205
   H        1.16508       -18.61625         5.02522
   H        2.81402       -18.11182         5.40311
   H        1.87795       -17.23672         4.18854
   H       -1.07929       -18.43377         7.59155
   H       -3.67595       -20.03474         4.58206
   H       -2.98480       -18.28557         3.01430
   H       -2.40866       -20.23248         8.14513
   H       -4.01969       -21.60210         5.93017
   H       -3.93673       -23.27553        11.16863
   H       -3.18088       -21.56431         9.64999
   H       -6.49933       -28.33208        13.19828
   H       -6.20457       -28.79647        10.77402
   H       -5.51179       -27.05039         9.23312
*
