# ORCA input file
# SCF done       -185.485961341925          0.000695435631
! CAM-B3LYP def2-SVP def2/J RIJCOSX Grid4 TightSCF
%maxcore 5000
%tddft
    Mode sTDDFT
    Ethresh 5.0
    maxcore 5000
end

%pal
  nprocs 6
  end
* xyz 0 1
   C       15.34071        -6.04086        -0.17926
   C       14.09627        -5.50540        -0.29642
   C       14.13634        -4.23513        -0.90523
   C       15.44545        -3.84175        -1.23858
   S       16.60144        -5.02218        -0.80460
   C       15.39913        -2.55988        -1.84108
   C       14.05443        -2.15368        -1.89767
   C       13.21868        -3.19931        -1.31163
   C       11.85859        -3.16989        -1.17967
   C       11.05272        -2.12613        -1.68129
   N       10.35524        -1.31502        -2.09634
   C       11.12640        -4.18140        -0.52975
   N       10.48779        -4.96473         0.01421
   C       13.87710        -0.89064        -2.43439
   C       15.08395        -0.29109        -2.79728
   S       16.44950        -1.36600        -2.47493
   C       15.33037         0.98806        -3.32004
   C       14.40696         1.99505        -3.48819
   C       14.65318         3.29798        -3.99071
   C       13.55976         4.11604        -4.01220
   C       12.38625         3.50360        -3.52899
   S       12.71781         1.85625        -3.05264
   C       11.09009         3.96504        -3.38198
   C       10.49847         5.21100        -3.67599
   C        9.16532         5.26076        -3.39200
   C        8.63296         4.05722        -2.85923
   S        9.90091         2.86213        -2.72542
   C        7.32943         3.80934        -2.50476
   C        6.82681         2.59979        -1.99056
   S        7.84467         1.23106        -1.64412
   C        6.48969         0.28328        -1.13249
   C        5.30589         1.00246        -1.21781
   C        5.49408         2.30682        -1.68679
   C        4.38449         3.30595        -1.80685
   C        3.00868         2.64225        -1.64839
   C        2.00876         3.66741        -1.44946
   N        1.24874         4.50433        -1.28687
   C        3.02967         1.66026        -0.45755
   C        1.69646         1.16164        -0.20334
   N        0.64456         0.74890        -0.03775
   C        3.96427         0.48881        -0.79206
   C        6.68786        -1.07405        -0.68439
   C        5.78130        -2.09172        -0.99366
   C        5.96352        -3.36652        -0.51122
   F        5.06568        -4.30699        -0.87341
   C        7.04962        -3.72651         0.29585
   C        7.99587        -2.72508         0.54163
   C        7.80843        -1.44725         0.07528
   F        8.72197        -0.51751         0.40463
   C        7.26488        -5.04677         0.82958
   C        6.37179        -5.97836         1.23558
   C        6.85016        -7.37893         1.45645
   O        7.99642        -7.74552         1.54253
   C        5.62757        -8.20400         1.50566
   C        5.51430        -9.56345         1.56051
   C        4.22729       -10.14521         1.56286
   C        3.07977        -9.30231         1.49528
   C        1.79838        -9.88990         1.48397
   C        1.66297       -11.24831         1.54298
   C        2.79854       -12.08036         1.61436
   C        4.05439       -11.54189         1.62365
   F        2.63541       -13.40939         1.67191
   F        0.44463       -11.80524         1.53357
   C        3.22863        -7.89771         1.44679
   C        4.48617        -7.35448         1.46438
   C        4.93581        -5.96451         1.45586
   C        4.15962        -4.89514         1.81010
   C        4.62407        -3.57709         1.98606
   N        4.93371        -2.48457         2.15645
   C        2.78453        -4.99603         2.11607
   N        1.66724        -5.02071         2.37543
   H       15.61373        -6.98746         0.24206
   H       13.20058        -5.99680         0.03790
   H       12.91632        -0.43419        -2.56813
   H       16.35414         1.21465        -3.58732
   H       15.63488         3.59238        -4.31824
   H       13.57073         5.13467        -4.35707
   H       11.06370         6.02830        -4.08750
   H        8.54347         6.12446        -3.55032
   H        6.62207         4.61558        -2.64441
   H        4.42979         3.81203        -2.77479
   H        4.50628         4.07268        -1.03243
   H        2.75252         2.08633        -2.55914
   H        3.38422         2.18225         0.43926
   H        3.51063        -0.09518        -1.60064
   H        4.06941        -0.16938         0.07381
   H        4.93485        -1.89825        -1.63064
   H        8.86182        -2.94668         1.14487
   H        8.30632        -5.35481         0.87883
   H        6.39502       -10.18626         1.59913
   H        0.91875        -9.26737         1.43377
   H        4.91354       -12.19204         1.67772
   H        2.34336        -7.28558         1.38479
*
