# ORCA input file
# SCF done       -202.851449625367          0.000678341257
! CAM-B3LYP def2-SVP def2/J RIJCOSX Grid4 TightSCF
%maxcore 5000
%tddft
    Mode sTDDFT
    Ethresh 5.0
    maxcore 5000
end

%pal
  nprocs 6
  end
* xyz 0 1
   C       -3.69510         2.01543        -4.56085
   C       -3.38272         2.10647        -5.88829
   F       -3.09701         3.29720        -6.43311
   C       -3.35703         0.95497        -6.69974
   F       -3.04666         1.07383        -7.99871
   C       -3.64547        -0.27253        -6.17253
   C       -3.97284        -0.39860        -4.80867
   C       -3.99811         0.76470        -3.98640
   C       -4.32554         0.66345        -2.61419
   C       -4.62111        -0.56314        -2.08110
   C       -4.59152        -1.71818        -2.91110
   C       -4.27841        -1.65407        -4.23771
   C       -4.94253        -2.89919        -2.10354
   O       -5.03608        -4.04492        -2.50955
   C       -5.15451        -2.41493        -0.73699
   C       -5.00000        -0.97297        -0.72918
   C       -5.20918        -0.11762         0.32137
   C       -5.64852        -0.48448         1.61131
   N       -6.02747        -0.68879         2.67591
   C       -5.04444         1.28125         0.24277
   N       -4.92914         2.42359         0.24428
   C       -5.41067        -3.20468         0.35729
   C       -5.58386        -4.59157         0.45339
   C       -5.81982        -5.21564         1.68542
   C       -5.96423        -6.58291         1.56458
   C       -5.84346        -7.02069         0.21963
   S       -5.54767        -5.75244        -0.87624
   C       -5.97195        -8.42655         0.20943
   C       -6.16546        -8.88208         1.52935
   C       -6.18971        -7.73235         2.41897
   C       -6.39295        -7.74594         3.77038
   C       -6.62616        -8.94481         4.47112
   N       -6.79405        -9.92949         5.03743
   C       -6.39786        -6.57439         4.55644
   N       -6.41956        -5.64037         5.22047
   C       -6.25731       -10.26809         1.62335
   C       -6.13752       -10.88105         0.38494
   S       -5.92754        -9.71241        -0.91563
   C       -6.15047       -12.27865         0.09924
   C       -6.00583       -13.24356         1.07056
   C       -6.02739       -14.61476         0.82837
   C       -6.21005       -15.14691        -0.52314
   C       -6.34549       -14.38269        -1.62964
   S       -6.34872       -12.66996        -1.60311
   C       -6.20091       -16.56025        -0.37508
   C       -6.03186       -16.90335         0.96875
   C       -6.00355       -18.30660         1.14119
   C       -6.15490       -18.96486        -0.03808
   S       -6.33373       -17.92532        -1.40743
   C       -5.91693       -15.68901         1.74197
   C       -5.73781       -15.53270         3.13075
   C       -5.77988       -16.53517         4.05431
   C       -5.61637       -16.38414         5.45524
   C       -5.39451       -15.18375         6.10583
   C       -5.23294       -15.03153         7.47459
   C       -5.40056       -16.16956         8.38448
   C       -5.60882       -17.44310         7.97866
   S       -5.71989       -17.90240         6.33316
   C       -5.30760       -15.63208         9.69823
   C       -5.09028       -14.25784         9.62916
   C       -4.98619       -13.67106        10.90892
   C       -5.12823       -14.59624        11.89434
   S       -5.38589       -16.20727        11.31614
   C       -5.00437       -13.85725         8.24576
   C       -4.71542       -12.54712         7.84403
   C       -4.35072       -12.12844         6.58747
   C       -4.11411       -10.79075         6.27244
   C       -3.77726       -10.35039         5.01421
   C       -3.65591       -11.13374         3.81297
   O       -3.87175       -12.32444         3.66038
   N       -3.25588       -10.32561         2.74105
   C       -3.17591        -8.99736         2.99569
   C       -2.95323        -7.98605         2.08831
   C       -2.79672        -8.15332         0.70436
   N       -2.70270        -8.21828        -0.43936
   C       -2.94318        -6.64049         2.49899
   N       -2.95866        -5.52924         2.78656
   S       -3.46456        -8.65520         4.67997
   C       -2.89412       -10.93606         1.48611
   H       -3.71049         2.90722        -3.95392
   H       -3.62151        -1.14498        -6.80656
   H       -4.33195         1.56317        -2.02091
   H       -4.26455        -2.54826        -4.84212
   H       -5.48444        -2.70506         1.31575
   H       -5.86321        -4.66519         2.60826
   H       -6.41667       -10.80796         2.53863
   H       -5.83988       -12.90426         2.08242
   H       -6.46867       -14.80230        -2.61551
   H       -5.87176       -18.82567         2.07238
   H       -6.17241       -20.02538        -0.19688
   H       -5.55710       -14.52053         3.46202
   H       -5.97002       -17.54414         3.72083
   H       -5.37421       -14.30394         5.48471
   H       -5.71427       -18.26289         8.67141
   H       -4.81963       -12.62639        11.09874
   H       -5.09678       -14.43663        12.95441
   H       -4.75577       -11.79840         8.62707
   H       -4.20277       -12.84186         5.79606
   H       -4.20702       -10.04617         7.05328
   H       -3.02424       -12.01130         1.61511
   H       -1.85356       -10.71586         1.24269
   H       -3.52914       -10.58817         0.67310
*
