# ORCA input file
# SCF done       -208.138536966324          0.000212876647
! CAM-B3LYP def2-SVP def2/J RIJCOSX Grid4 TightSCF
%maxcore 5000
%tddft
    Mode sTDDFT
    Ethresh 5.0
    maxcore 5000
end

%pal
  nprocs 6
  end
* xyz 0 1
   C       -6.09765        -6.99468        -7.70461
   C       -5.01793        -6.55705        -6.93252
   C       -3.74515        -6.51303        -7.50730
   C       -3.55886        -6.89596        -8.83578
   C       -4.63876        -7.31869        -9.57918
   C       -5.91126        -7.36977        -9.01483
   O       -2.65098        -6.11655        -6.81142
   C       -2.78078        -5.71818        -5.54168
   C       -1.47538        -5.31910        -4.93711
   C       -3.96716        -5.70100        -4.88961
   C       -5.20718        -6.16712        -5.53316
   O       -6.27937        -6.21188        -4.95391
   C       -4.15114        -5.26725        -3.50332
   C       -4.05103        -3.93875        -3.07726
   C       -3.62026        -2.83545        -3.94545
   O       -3.29254        -2.87349        -5.09667
   S       -3.64134        -1.30996        -2.99826
   C       -4.18313        -2.12691        -1.48845
   O       -4.31688        -1.53492        -0.45769
   C       -4.39658        -3.55471        -1.77465
   C       -4.90319        -4.46819        -0.84215
   C       -5.02942        -5.79044        -1.28047
   C       -4.64401        -6.17951        -2.56464
   C       -4.77318        -7.61981        -2.83410
   O       -4.37344        -8.23774        -3.77655
   S       -5.58540        -8.39041        -1.42961
   C       -5.63363        -6.86579        -0.47704
   O       -6.11099        -6.79638         0.61744
   C       -5.26376        -4.06596         0.52523
   C       -6.29017        -3.18083         0.73730
   C       -6.57833        -2.74748         2.04517
   C       -7.50110        -1.82490         2.54316
   C       -8.52912        -0.99812         1.86417
   C       -7.92427         0.37728         1.47279
   N       -7.77497         1.21533         2.64194
   C       -9.17934        -1.64228         0.63255
   N      -10.38214        -0.89993         0.29379
   C       -7.21795        -1.68247         3.95096
   C       -7.71064        -0.81480         4.85625
   C       -7.13236        -0.74631         6.22722
   C       -6.23448        -1.87993         6.58685
   C       -5.74780        -2.73322         5.65904
   C       -6.15987        -2.62152         4.31300
   C       -5.76918        -3.26045         3.13726
   C       -4.75699        -4.20289         2.88844
   C       -4.51044        -4.59483         1.60548
   C       -8.22031        -0.45139         7.22490
   C       -8.72685         0.76946         7.33156
   C       -9.88017         1.16009         8.13280
   C       -9.97990         0.99844         9.51909
   C       -8.92670         0.40477        10.35421
   O       -7.83375         0.03259        10.03769
   S       -9.51777         0.31239        12.05100
   C      -11.08390         1.10184        11.66419
   O      -11.92047         1.31228        12.49575
   C      -11.11459         1.41753        10.23166
   C      -12.18557         2.06108         9.60331
   C      -12.07863         2.23092         8.21868
   C      -10.96999         1.77499         7.50100
   C      -11.07554         1.95149         6.04842
   O      -10.29818         1.60164         5.19941
   S      -12.61225         2.78729         5.67543
   C      -13.08492         2.92749         7.41004
   O      -14.03765         3.55329         7.76986
   C      -13.44972         2.39581        10.26177
   C      -13.59019         3.34828        11.21397
   O      -14.76124         3.63774        11.79086
   C      -15.87604         2.95542        11.43002
   C      -17.06933         3.28796        12.07160
   C      -18.23142         2.63344        11.72722
   C      -18.22412         1.64676        10.74403
   C      -17.04913         1.31767        10.10896
   C      -15.85674         1.96473        10.44501
   C      -14.60475         1.63162         9.76067
   O      -14.51729         0.80450         8.86886
   C      -12.48095         4.20614        11.72673
   H       -7.06948        -7.02532        -7.23612
   H       -2.56593        -6.85290        -9.25454
   H       -4.49494        -7.61409       -10.60739
   H       -6.74831        -7.70466        -9.60778
   H       -0.68520        -5.95817        -5.32380
   H       -1.50888        -5.38529        -3.85385
   H       -1.25175        -4.29098        -5.22289
   H       -6.85377        -2.80932        -0.10241
   H       -9.32877        -0.79018         2.58412
   H       -8.59733         0.80330         0.71496
   H       -6.93901         0.22082         1.02628
   H       -8.67547         1.55581         2.96252
   H       -7.17417         2.00719         2.45380
   H       -9.36304        -2.70946         0.83913
   H       -8.50991        -1.56671        -0.22692
   H      -11.08029        -0.99894         1.02345
   H      -10.78457        -1.24410        -0.57018
   H       -8.48635        -0.10320         4.62264
   H       -6.48912         0.15253         6.19710
   H       -5.94316        -1.94573         7.62363
   H       -5.05077        -3.51022         5.93628
   H       -4.17091        -4.59296         3.70670
   H       -3.72119        -5.29916         1.38845
   H       -8.61758        -1.28783         7.77878
   H       -8.33000         1.56414         6.71041
   H      -17.05588         4.05703        12.82756
   H      -19.15492         2.89068        12.22338
   H      -19.14193         1.14325        10.48233
   H      -17.00972         0.56062         9.34080
   H      -11.66449         4.25980        11.01294
   H      -12.10833         3.78364        12.66012
   H      -12.85950         5.20425        11.93357
*
