# ORCA input file
# SCF done       -195.278364459215          0.000613560061
! CAM-B3LYP def2-SVP def2/J RIJCOSX Grid4 TightSCF
%maxcore 5000
%tddft
    Mode sTDDFT
    Ethresh 5.0
    maxcore 5000
end

%pal
  nprocs 6
  end
* xyz 0 1
   C       12.34479        -5.37160        -6.29782
   C       12.14962        -5.71895        -7.60585
   F       12.78864        -6.78902        -8.10848
   C       11.30033        -4.99760        -8.45682
   C       10.64222        -3.90533        -7.96456
   C       10.80801        -3.50115        -6.62371
   C       11.67670        -4.24772        -5.77413
   C       11.86798        -3.85571        -4.42891
   C       11.21394        -2.75135        -3.95193
   C       10.33642        -2.01666        -4.80286
   C       10.13417        -2.37358        -6.10533
   C        9.74377        -0.89548        -4.05126
   O        8.98826        -0.04240        -4.44954
   C       10.22600        -1.07425        -2.64873
   C       11.25835        -2.09229        -2.65067
   C       12.23585        -2.24579        -1.70372
   C       12.40940        -1.37341        -0.60776
   N       12.63956        -0.64645         0.25000
   C       13.25025        -3.22353        -1.77848
   N       14.08036        -4.01529        -1.79194
   C        9.63399        -0.40610        -1.62898
   C        9.71246        -0.70782        -0.24180
   C        9.79557        -2.04169         0.37362
   N        9.80335        -2.02885         1.67325
   C        9.75777        -0.71485         2.03160
   C        9.65926         0.13766         0.83935
   C        9.67983         1.53087         1.21134
   S        9.69803         2.80620         0.17998
   C        9.74981         1.50664         2.65098
   C        9.81035         0.11347         3.12496
   N        9.93451         0.07203         4.48212
   C        9.97870         1.31102         4.87024
   C        9.87580         2.28592         3.78123
   C        9.88015         3.71304         3.91019
   O        9.42315         4.34865         2.79409
   C        9.47673         5.70463         2.71757
   C        9.11753         6.37177         1.57799
   F        8.67311         5.82709         0.45543
   S        9.28810         8.08257         1.68883
   C       10.30931         4.32855         5.03440
   S       10.41454         6.04187         5.30087
   C        9.86932         6.60849         3.73372
   C        9.82451         7.93579         3.34600
   C       10.20352         9.08495         4.08685
   C       10.33765         9.20207         5.54677
   N       10.83733        10.33096         5.94613
   C       11.09369        11.04792         4.81675
   C       10.59987        10.32287         3.62759
   C       10.95898        11.03034         2.43094
   S       10.42569        10.80029         0.89088
   C       11.87195        12.04002         2.90553
   C       11.83413        12.11446         4.38382
   N       12.69782        13.06407         4.82983
   C       13.31374        13.51122         3.77730
   C       12.90689        12.85970         2.52427
   C       13.52095        13.05276         1.25207
   C       13.64991        12.13738         0.26240
   C       13.94387        12.58238        -1.13447
   O       14.41339        13.64280        -1.46925
   C       13.47000        11.47653        -1.98619
   C       13.37882        11.42046        -3.34767
   C       12.86982        10.25234        -3.95695
   C       12.45209         9.15955        -3.14032
   C       11.94207         8.00043        -3.75746
   C       11.86494         7.94551        -5.12154
   C       12.27229         9.00784        -5.94113
   C       12.76549        10.14197        -5.35902
   F       11.38615         6.83911        -5.71455
   C       12.56065         9.24209        -1.73357
   C       13.06811        10.38047        -1.16656
   C       13.33349        10.71992         0.22401
   C       13.46035         9.82937         1.25676
   C       13.99697        10.16690         2.51566
   N       14.46620        10.37001         3.54357
   C       13.02348         8.49110         1.22094
   N       12.60821         7.42326         1.30479
   H       13.00870        -5.94819        -5.67288
   H       11.18559        -5.31962        -9.47964
   H        9.98333        -3.33353        -8.60042
   H       12.52415        -4.44301        -3.80612
   H        9.47077        -1.79833        -6.73359
   H        8.98961         0.42210        -1.90950
   H        9.79734        -2.97294        -0.16642
   H       10.05983         1.54562         5.91673
   H       10.66189         3.75978         5.87519
   H       10.02569         8.46266         6.26217
   H       14.06231        14.27952         3.85617
   H       13.90048        14.04722         1.03877
   H       13.69310        12.25704        -3.95359
   H       11.61915         7.16333        -3.15848
   H       12.18699         8.90699        -7.01151
   H       13.08438        10.97317        -5.96964
   H       12.22822         8.40902        -1.13421
*
