# ORCA input file
# SCF done       -241.516489576358          0.000464519400
! CAM-B3LYP def2-SVP def2/J RIJCOSX Grid4 TightSCF
%maxcore 5000
%tddft
    Mode sTDDFT
    Ethresh 5.0
    maxcore 5000
end

%pal
  nprocs 6
  end
* xyz 0 1
   C        6.21659         6.23476        14.10099
   C        5.65776         6.22835        15.34898
   F        5.53273         7.38458        16.02471
   C        5.20246         5.05345        15.96231
   C        5.32035         3.86804        15.29101
   C        5.88752         3.81676        14.00142
   C        6.34194         5.02361        13.39381
   C        6.90089         5.00048        12.09426
   C        6.99920         3.80882        11.42963
   C        6.56346         2.60282        12.04959
   C        6.01630         2.59647        13.29990
   C        6.81521         1.47417        11.13673
   O        6.52593         0.30965        11.28879
   C        7.54926         2.05846         9.97358
   C        7.48764         3.49217        10.09117
   C        7.62451         4.40407         9.07316
   C        7.44457         5.79490         9.21996
   N        7.31408         6.93389         9.27108
   C        7.88818         4.04590         7.74376
   N        8.11768         3.79775         6.64425
   C        8.10970         1.18927         9.08133
   C        9.10283         1.33065         8.09035
   S        9.11894         0.16335         6.79561
   C       10.51129         0.86920         6.04987
   C       10.98085         1.92806         6.82923
   C       10.18420         2.20226         7.95388
   S       10.60388         3.35840         9.21673
   C       11.11862         4.84357         8.34381
   O       11.40967         5.79654         8.99747
   C       11.17274         4.73936         6.84650
   C       12.36196         3.86581         6.48385
   O       13.43595         4.29028         6.17848
   O       12.16788         2.53546         6.51918
   C       10.95868         0.37051         4.79829
   C       11.98900         0.87112         4.07428
   C       12.37517         0.46648         2.75367
   C       13.32253         1.22666         2.09507
   C       13.65002         0.95174         0.75657
   C       14.49371         1.61224        -0.12976
   C       15.33442         2.79987         0.17756
   C       16.82424         2.57955        -0.20058
   N       17.75870         3.40810         0.52242
   C       14.76801         4.06605        -0.49213
   N       13.53426         4.43831         0.17240
   C       14.35365         0.94881        -1.40671
   C       14.86670         1.21926        -2.62114
   C       14.47336         0.43994        -3.83188
   C       13.59800        -0.74358        -3.55377
   C       13.10217        -1.00904        -2.33205
   C       13.41361        -0.17237        -1.23366
   C       12.99418        -0.15892         0.07904
   C       12.07867        -0.96463         0.79838
   C       11.78019        -0.65693         2.08402
   C       15.68631         0.00615        -4.60391
   C       15.96104         0.44144        -5.83757
   C       17.07616         0.03170        -6.63146
   S       18.22518        -1.15243        -6.10879
   C       19.13789        -1.02909        -7.58204
   C       18.54001        -0.10439        -8.43709
   C       17.38790         0.50049        -7.89994
   S       16.32084         1.62773        -8.74966
   C       17.42849         2.79202        -9.52903
   O       16.96443         3.68769       -10.16492
   C       18.89851         2.51294        -9.34355
   C       19.25345         1.31987       -10.22229
   O       19.68325         1.41481       -11.33004
   O       19.05832         0.09943        -9.68375
   C       20.29012        -1.78084        -7.92366
   C       20.97873        -2.67163        -7.16488
   C       20.79491        -2.92410        -5.78350
   C       21.30238        -3.97562        -5.08348
   C       21.43257        -3.90816        -3.60179
   O       20.89657        -3.11139        -2.86603
   C       22.39223        -4.97346        -3.25380
   C       22.95226        -5.26427        -2.04304
   C       23.88667        -6.31994        -1.95028
   C       24.22805        -7.05646        -3.12236
   C       25.16846        -8.10008        -3.02480
   C       25.73021        -8.38588        -1.81136
   C       25.40574        -7.67577        -0.64717
   C       24.49533        -6.65880        -0.72428
   F       26.62866        -9.38131        -1.71614
   C       23.62522        -6.74062        -4.36232
   C       22.71758        -5.71854        -4.42557
   C       21.92756        -5.19840        -5.53746
   C       21.65846        -5.85412        -6.71015
   C       20.64630        -5.45168        -7.60764
   N       19.79251        -5.19256        -8.32929
   C       22.27412        -7.06508        -7.08861
   N       22.76541        -8.03858        -7.44628
   H        6.55388         7.15874        13.65796
   H        4.77007         5.10980        16.94868
   H        4.97722         2.94981        15.74343
   H        7.24644         5.92610        11.66191
   H        5.68322         1.67289        13.74908
   H        7.73296         0.17335         9.18440
   H       11.34131         5.74000         6.44449
   H       10.24653         4.31376         6.44813
   H       10.36690        -0.44840         4.41414
   H       12.56631         1.68589         4.48599
   H       13.77776         2.06703         2.59883
   H       15.28891         2.97413         1.25810
   H       16.97057         2.77471        -1.26550
   H       17.08875         1.53693        -0.00695
   H       17.55577         4.39241         0.38879
   H       17.72074         3.21357         1.51676
   H       14.65155         3.88496        -1.57436
   H       15.47182         4.89417        -0.36188
   H       12.83797         3.70898         0.05863
   H       13.15929         5.29829        -0.21038
   H       15.56180         2.02872        -2.79051
   H       13.90655         1.13325        -4.47574
   H       13.37093        -1.36873        -4.40330
   H       12.45325        -1.85806        -2.17464
   H       11.61812        -1.81034         0.30941
   H       11.07950        -1.26940         2.62871
   H       16.32933        -0.71099        -4.11273
   H       15.30974         1.16045        -6.31890
   H       19.13195         2.30558        -8.29735
   H       19.45547         3.37996        -9.70239
   H       20.60659        -1.63384        -8.94837
   H       21.77960        -3.20953        -7.65495
   H       20.29955        -2.16708        -5.18485
   H       22.68713        -4.69395        -1.16542
   H       25.43949        -8.66981        -3.89988
   H       25.88105        -7.94667         0.28219
   H       24.22995        -6.09739         0.15885
   H       23.90504        -7.30949        -5.23495
*
