# ORCA input file
# SCF done       -198.935691638184          0.000784042562
! CAM-B3LYP def2-SVP def2/J RIJCOSX Grid4 TightSCF
%maxcore 5000
%tddft
    Mode sTDDFT
    Ethresh 5.0
    maxcore 5000
end

%pal
  nprocs 6
  end
* xyz 0 1
   C        5.03674         1.80575         0.74565
   C        5.11906         3.16670         0.65497
   C        5.91449         3.83793        -0.29744
   N        6.54196         4.42420        -1.05813
   C        4.51143         4.05476         1.57067
   N        4.13594         4.82217         2.33721
   C        5.84587         0.84770         0.00338
   C        5.82334        -0.40266         0.69329
   C        6.51608        -1.48782         0.23218
   C        7.25949        -1.37173        -0.96237
   C        7.27898        -0.12823        -1.66074
   C        6.55890         0.98001        -1.15738
   C        8.02608        -0.03227        -2.85181
   C        8.71957        -1.11111        -3.33075
   C        8.69356        -2.33596        -2.64598
   C        7.97865        -2.46471        -1.48590
   C        4.95097        -0.30022         1.86878
   O        4.71862        -1.12930         2.71496
   C        4.30686         1.05397         1.74791
   C        3.12155         1.28442         2.36914
   C        2.17499         2.28405         2.01956
   N        2.32457         3.06567         0.95996
   C        1.20948         3.81386         0.87986
   C        0.27112         3.48951         1.96217
   C       -0.94756         4.31299         1.85305
   O       -1.94005         4.27939         2.54728
   C       -0.66506         5.15109         0.67463
   C        0.65332         4.79565         0.09721
   N        0.90574         5.53616        -1.00727
   C       -0.13303         6.32492        -1.13731
   C       -1.15301         6.13574        -0.12062
   C        0.87425         2.50163         2.70255
   C        0.41669         1.77837         3.83253
   C       -0.83099         1.90746         4.35804
   C       -1.26820         1.06570         5.40815
   C       -0.58445         0.03835         6.05536
   C       -1.48426        -0.62925         6.93050
   C       -2.78432         0.05321         6.84537
   O       -3.84213        -0.13884         7.37566
   N       -2.53839         1.08092         5.91663
   C       -0.83447        -1.74904         7.39752
   O        0.44676        -1.76294         6.92244
   C        0.65297        -0.70513         6.05803
   O        1.69651        -0.55384         5.47454
   C       -1.28907        -2.87456         8.14311
   N       -2.17237        -2.78346         9.11645
   C       -2.27029        -4.02275         9.64133
   C       -1.37553        -4.96829         8.94627
   C       -1.49365        -6.32333         9.52361
   O       -0.92193        -7.33459         9.19459
   C       -2.48610        -6.11930        10.59798
   C       -2.92941        -4.70278        10.63388
   N       -3.85193        -4.51837        11.60948
   C       -4.01267        -5.69486        12.15871
   C       -3.19521        -6.74351        11.56961
   C       -0.76484        -4.25724         7.95437
   C        0.13014        -4.65506         6.91161
   C        0.08203        -4.09098         5.68108
   C        1.09362        -4.25890         4.70203
   C        1.23150        -3.43707         3.62093
   C        2.29906        -3.46754         2.63319
   C        3.37169        -4.31686         2.60663
   C        4.39136        -4.27747         1.63500
   N        5.25586        -4.32026         0.87993
   C        3.63285        -5.35179         3.53089
   N        3.91944        -6.22312         4.22128
   C        2.05102        -2.39715         1.67419
   C        0.88067        -1.69245         2.07035
   C        0.33581        -2.29611         3.29624
   O       -0.63928        -1.90379         3.91043
   C        0.40413        -0.62537         1.36310
   C        1.10943        -0.18399         0.22195
   C        2.29193        -0.87408        -0.17321
   C        2.73515        -2.00161         0.55489
   C        3.01318        -0.39815        -1.28759
   C        2.59884         0.71493        -1.96650
   C        1.42360         1.38194        -1.58972
   C        0.68743         0.93147        -0.52836
   H        6.48449        -2.43102         0.75776
   H        6.57687         1.90635        -1.70996
   H        8.04410         0.91174        -3.37631
   H        9.29170        -1.02613        -4.24243
   H        9.24305        -3.17615        -3.04278
   H        7.94729        -3.40297        -0.95298
   H        2.83533         0.56420         3.12771
   H       -0.18037         7.03123        -1.94777
   H       -2.07477         6.67883        -0.05484
   H        1.09686         1.06070         4.26831
   H       -1.53260         2.62539         3.95199
   H       -3.25799         1.72250         5.61616
   H       -4.70050        -5.82396        12.97637
   H       -3.18580        -7.77116        11.87437
   H        0.86423        -5.41413         7.15021
   H       -0.72421        -3.41278         5.44038
   H        1.83135        -5.02886         4.88563
   H       -0.49711        -0.11826         1.67631
   H        3.61646        -2.51933         0.21139
   H        3.90626        -0.92695        -1.58911
   H        3.17000         1.08345        -2.80501
   H        1.10806         2.25411        -2.14153
   H       -0.22600         1.43252        -0.23888
*
