# ORCA input file
# SCF done       -219.670046561144          0.000934091918
! CAM-B3LYP def2-SVP def2/J RIJCOSX Grid4 TightSCF
%maxcore 5000
%tddft
    Mode sTDDFT
    Ethresh 5.0
    maxcore 5000
end

%pal
  nprocs 6
  end
* xyz 0 1
   C       -2.59359        12.18968         5.13095
   C       -3.14425        11.19410         4.35935
   C       -4.04712        11.42665         3.31042
   N       -4.75499        11.57261         2.41593
   C       -2.94877         9.82242         4.61956
   N       -2.88404         8.70197         4.86187
   C       -3.06790        13.56996         5.18647
   C       -2.61524        14.14969         6.40775
   C       -2.96333        15.41721         6.77190
   C       -3.78531        16.18153         5.91187
   C       -4.22328        15.61589         4.68053
   C       -3.85226        14.29590         4.33249
   C       -5.03848        16.38979         3.83040
   C       -5.41041        17.65925         4.18049
   C       -4.98125        18.21428         5.39473
   C       -4.18523        17.49114         6.24131
   C       -1.76290        13.17730         7.12161
   O       -1.22569        13.31176         8.19908
   C       -1.65179        12.01318         6.20741
   C       -0.66711        11.08718         6.41385
   C       -0.12220        10.15777         5.51468
   O       -0.42451        10.13193         4.18452
   C        0.25122         9.12565         3.60675
   C        1.07634         8.49971         4.55687
   C        0.82115         9.15896         5.77818
   O        1.32931         8.90536         7.00034
   C        2.00845         7.39587         4.30310
   O        1.92508         6.62253         3.39023
   O        3.02228         7.28832         5.20329
   C        0.07194         8.79715         2.24560
   C       -0.78581         9.46342         1.42927
   C       -1.11681         9.12916         0.07929
   C       -2.02443         9.92997        -0.59015
   C       -2.45438         9.60229        -1.88754
   C       -3.36702        10.19839        -2.74956
   C       -4.11630        11.48543        -2.66236
   C       -4.56381        11.86934        -1.24147
   N       -5.03004        10.70406        -0.51989
   C       -3.27138        12.62922        -3.26875
   N       -2.96917        12.35427        -4.66356
   C       -3.44946         9.34766        -3.91670
   C       -4.19938         9.45198        -5.02916
   C       -4.14960         8.42398        -6.10112
   C       -3.14697         7.32896        -5.87048
   C       -2.39763         7.24998        -4.75758
   C       -2.52395         8.22432        -3.73611
   C       -1.92671         8.38630        -2.50576
   C       -0.96800         7.60647        -1.81421
   C       -0.57331         7.96835        -0.57058
   C       -3.92173         9.01027        -7.46763
   C       -3.41564        10.22527        -7.70052
   C       -3.18140        10.72870        -9.02032
   O       -3.53841        10.02239       -10.11543
   C       -3.20289        10.71118       -11.22416
   C       -2.60797        11.92607       -10.84313
   C       -2.59446        11.92252        -9.42220
   O       -2.12842        12.86191        -8.58976
   C       -2.19160        13.03952       -11.68630
   O       -2.42800        13.19198       -12.85460
   O       -1.50157        13.98118       -10.98590
   C       -3.49729        10.06716       -12.45115
   C       -3.07823        10.40103       -13.70051
   C       -3.48009         9.62617       -14.81346
   C       -3.00628         9.76542       -16.08700
   C       -3.45991         9.04888       -17.26417
   C       -4.39840         8.04893       -17.31364
   C       -4.79654         7.39391       -18.49773
   N       -5.16996         6.82002       -19.41948
   C       -5.09335         7.51216       -16.21040
   N       -5.69988         7.01280       -15.37165
   C       -2.73091         9.57530       -18.41346
   C       -1.81117        10.56232       -17.95799
   C       -1.92052        10.69741       -16.49329
   O       -1.23484        11.39564       -15.77842
   C       -0.98235        11.22643       -18.81484
   C       -1.03872        10.93305       -20.19596
   C       -1.95937         9.95052       -20.66096
   C       -2.80305         9.27642       -19.74874
   C       -2.00867         9.66504       -22.04077
   C       -1.18820        10.31707       -22.92035
   C       -0.28135        11.28396       -22.46123
   C       -0.20841        11.58539       -21.12823
   H       -2.62078        15.83277         7.70785
   H       -4.19636        13.89278         3.39265
   H       -5.36973        15.95666         2.89772
   H       -6.03853        18.24245         3.52361
   H       -5.28412        19.21723         5.65618
   H       -3.85155        17.91331         7.17799
   H       -0.17513        11.12158         7.37909
   H        1.62776         7.98735         7.06441
   H        3.13834         8.08794         5.73452
   H        0.63530         7.93909         1.91555
   H       -1.30450        10.32189         1.83919
   H       -2.43234        10.79125        -0.08950
   H       -5.00961        11.38525        -3.28671
   H       -5.32077        12.66973        -1.33258
   H       -3.72065        12.29551        -0.69161
   H       -5.90523        10.36910        -0.90645
   H       -5.17720        10.92582         0.45943
   H       -2.37112        12.76509        -2.64731
   H       -3.85657        13.55207        -3.22643
   H       -2.28103        11.61072        -4.72557
   H       -2.57990        13.17495        -5.11396
   H       -4.87568        10.27929        -5.18791
   H       -5.14747         7.95152        -6.12775
   H       -3.05985         6.59617        -6.65794
   H       -1.69331         6.44132        -4.62619
   H       -0.56906         6.72059        -2.28622
   H        0.14724         7.36854        -0.03883
   H       -4.14951         8.35840        -8.29941
   H       -3.15958        10.90452        -6.90074
   H       -1.74067        13.57542        -9.12198
   H       -1.25351        14.69975       -11.58790
   H       -4.09575         9.17119       -12.32417
   H       -2.43974        11.25382       -13.86829
   H       -4.23575         8.87387       -14.62353
   H       -0.29166        11.96858       -18.44276
   H       -3.48801         8.53814       -20.13403
   H       -2.70827         8.91933       -22.38902
   H       -1.23340        10.09142       -23.97532
   H        0.35911        11.78865       -23.16915
   H        0.48788        12.32913       -20.76902
*
