# ORCA input file
# SCF done       -217.811133453591          0.000371440792
! CAM-B3LYP def2-SVP def2/J RIJCOSX Grid4 TightSCF
%maxcore 5000
%tddft
    Mode sTDDFT
    Ethresh 5.0
    maxcore 5000
end

%pal
  nprocs 6
  end
* xyz 0 1
   C       -0.27366        11.94919         2.31774
   C        0.98420        12.06470         1.76430
   C        1.83979        13.15984         1.96936
   N        2.56211        14.04666         2.08050
   C        1.56344        11.02080         1.02107
   N        2.05411        10.15001         0.45344
   C       -0.81200        12.80639         3.37114
   C       -1.87085        12.10482         4.01599
   C       -2.54501        12.64167         5.07225
   C       -2.19228        13.93231         5.53145
   C       -1.14311        14.64288         4.88219
   C       -0.45384        14.05576         3.79441
   C       -0.80597        15.92958         5.34676
   C       -1.46993        16.48931         6.40458
   C       -2.50251        15.78869         7.04397
   C       -2.85532        14.53715         6.61661
   C       -2.06892        10.80352         3.34421
   O       -2.86962         9.93587         3.62892
   C       -1.14170        10.81310         2.19290
   C       -1.26321         9.80106         1.26938
   N       -0.98338         9.78289        -0.03670
   C       -0.76847        11.00870        -0.79090
   C       -1.90045        11.23738        -1.79074
   C       -1.01470         8.58167        -0.75478
   C       -0.34981         8.41334        -1.93868
   S       -0.51191         6.83365        -2.58268
   C       -1.49987         6.37074        -1.26523
   C       -1.69270         7.37371        -0.36269
   N       -2.46392         7.18962         0.80736
   C       -3.89965         7.39184         0.67860
   C       -4.24196         8.64675        -0.11262
   C       -1.99894         6.21070         1.69583
   C       -2.83126         5.41312         2.43026
   C       -2.29003         4.48981         3.35993
   C       -2.89078         3.58511         4.21679
   C       -4.33685         3.26592         4.43887
   C       -5.25640         4.49588         4.44216
   N       -6.37796         4.25590         5.34300
   C       -4.81762         2.21299         3.41886
   N       -4.81482         2.75347         2.06916
   C       -1.82648         2.88888         4.90325
   C       -1.85198         1.92738         5.84422
   C       -0.60401         1.34642         6.41199
   C        0.65887         1.91812         5.84490
   C        0.67088         2.88969         4.91464
   C       -0.54455         3.41649         4.41708
   C       -0.83951         4.39172         3.48895
   C       -0.01250         5.24279         2.72005
   C       -0.57506         6.12698         1.86215
   C       -0.61959        -0.15452         6.22904
   C       -0.33342        -1.00237         7.21450
   N       -0.37342        -2.38339         7.16993
   C        0.12160        -3.11327         8.32626
   C        1.64216        -3.24830         8.31680
   C       -0.33550        -3.07009         5.95097
   C        0.42671        -2.74722         4.86772
   S        0.21210        -3.83619         3.56029
   C       -0.90515        -4.76385         4.46215
   C       -1.10383        -4.25624         5.71149
   N       -2.02291        -4.79078         6.63112
   C       -3.11288        -3.90766         7.02047
   C       -4.23443        -3.93587         5.98581
   C       -2.11359        -6.08768         6.91445
   C       -1.17815        -7.08310         6.73504
   C       -1.46164        -8.48979         6.89642
   C       -2.69832        -9.07532         7.03822
   C       -2.90353       -10.45846         7.20675
   N       -3.14239       -11.57154         7.36164
   C       -3.92606        -8.38868         6.99764
   N       -4.95836        -7.88439         6.93862
   C       -0.19924        -9.21338         6.77910
   C        0.83448        -8.27085         6.51828
   C        0.26334        -6.91069         6.50938
   O        0.89205        -5.86957         6.42754
   C        2.13004        -8.65296         6.33255
   C        2.45905       -10.02654         6.39740
   C        1.43273       -10.97541         6.66840
   C        0.09790       -10.54704         6.85855
   C        1.77229       -12.34144         6.73757
   C        3.06292       -12.75335         6.54375
   C        4.07230       -11.81822         6.27332
   C        3.77656       -10.48363         6.20217
   H       -3.33724        12.09005         5.55628
   H        0.33529        14.61549         3.31621
   H       -0.00754        16.46422         4.85301
   H       -1.20179        17.47509         6.75453
   H       -3.01709        16.24461         7.87679
   H       -3.64991        13.99221         7.10551
   H       -1.75188         8.90766         1.64691
   H        0.19380        10.97681        -1.30485
   H       -0.75620        11.84074        -0.08888
   H       -1.72964        12.17232        -2.31714
   H       -2.85547        11.30082        -1.27411
   H       -1.95241        10.43432        -2.52075
   H        0.26632         9.11516        -2.46129
   H       -1.88437         5.37188        -1.20331
   H       -4.29748         7.49638         1.69095
   H       -4.37430         6.52077         0.20075
   H       -3.84695         9.52901         0.38432
   H       -5.32297         8.74402        -0.17114
   H       -3.84800         8.59720        -1.12565
   H       -3.89860         5.45543         2.31110
   H       -4.42968         2.81404         5.43220
   H       -5.57623         4.70976         3.41277
   H       -4.70562         5.35703         4.82806
   H       -6.95655         5.08680         5.40572
   H       -6.95967         3.50917         4.97614
   H       -5.84566         1.91941         3.65469
   H       -4.18018         1.31745         3.52633
   H       -3.87542         3.05825         1.83287
   H       -5.08581         2.03547         1.40551
   H       -2.78009         1.51934         6.22270
   H       -0.60692         1.54420         7.49522
   H        1.57589         1.49582         6.22879
   H        1.60522         3.27777         4.53366
   H        1.06045         5.19068         2.83276
   H        0.04877         6.79876         1.29033
   H       -0.84940        -0.49648         5.23218
   H       -0.11490        -0.61815         8.20277
   H       -0.32182        -4.11081         8.32293
   H       -0.21331        -2.58965         9.22595
   H        1.94601        -3.86347         7.47380
   H        1.97937        -3.72427         9.23369
   H        2.11272        -2.27079         8.23329
   H        1.10852        -1.92726         4.76902
   H       -1.35690        -5.63544         4.03181
   H       -2.71127        -2.89702         7.11279
   H       -3.49339        -4.22431         7.99411
   H       -3.85734        -3.63498         5.01083
   H       -5.02401        -3.25062         6.28015
   H       -4.65493        -4.93606         5.90571
   H       -3.04814        -6.36448         7.38745
   H        2.89587        -7.91811         6.13229
   H       -0.65593       -11.29008         7.06492
   H        0.99066       -13.05779         6.94466
   H        3.31246       -13.80258         6.59717
   H        5.08549       -12.15985         6.12171
   H        4.55032        -9.75865         5.99466
*
