# ORCA input file
# SCF done       -160.096940760170          0.000929641000
! CAM-B3LYP def2-SVP def2/J RIJCOSX Grid4 TightSCF
%maxcore 5000
%tddft
    Mode sTDDFT
    Ethresh 5.0
    maxcore 5000
end

%pal
  nprocs 6
  end
* xyz 0 1
   C       -3.47620        -0.83001        -2.26612
   C       -3.58772         0.28133        -3.05911
   C       -3.26890         1.56211        -2.58794
   C       -2.82059         1.79863        -1.30006
   C       -2.69800         0.66300        -0.45321
   C       -3.02967        -0.64844        -0.94817
   N       -2.85584        -1.59084        -0.01890
   S       -2.33298        -0.89876         1.33016
   N       -2.29666         0.62352         0.81610
   C       -2.48335         3.11499        -0.83476
   C       -1.98090         3.47357         0.39770
   C       -1.74505         4.84781         0.49232
   C       -2.07961         5.54062        -0.68333
   S       -2.67908         4.50544        -1.89796
   C       -1.78540         6.91488        -0.49788
   C       -1.25641         7.09017         0.79098
   C       -1.22760         5.79613         1.46112
   C       -0.81055         5.53901         2.73469
   C       -0.32873         6.55680         3.58372
   N        0.06207         7.38371         4.27611
   C       -0.83839         4.24493         3.29628
   N       -0.85587         3.20200         3.77229
   C       -0.91064         8.41250         1.06239
   C       -1.18067         9.25196        -0.00459
   S       -1.87654         8.38000        -1.36893
   C       -0.94563        10.65409        -0.09325
   C       -1.38070        11.41504        -1.15128
   C       -1.15967        12.78247        -1.29605
   C       -0.39391        13.53465        -0.29836
   C        0.11403        12.99537         0.83073
   S       -0.04653        11.34111         1.25676
   C       -0.35802        14.86977        -0.78546
   C       -1.06486        14.96262        -1.98696
   C       -1.02658        16.27572        -2.50944
   C       -0.32160        17.11780        -1.70926
   S        0.32863        16.36529        -0.29437
   C       -1.58961        13.65890        -2.31444
   C       -2.42166        13.27797        -3.38846
   C       -3.02420        14.11261        -4.27853
   C       -3.91753        13.67913        -5.28541
   C       -4.29457        12.38721        -5.63033
   C       -5.25315        12.36822        -6.63664
   C       -5.62099        13.65090        -7.07806
   S       -4.76612        14.88076        -6.25287
   C       -6.62329        13.51422        -8.06853
   C       -6.88703        12.14531        -8.25848
   C       -6.03419        11.37999        -7.37336
   C       -5.97226        10.02269        -7.23810
   C       -6.77409         9.14642        -7.99864
   N       -7.41706         8.41698        -8.60686
   C       -5.10046         9.40246        -6.32017
   N       -4.39346         8.89666        -5.57128
   C       -7.89026        11.91107        -9.20327
   C       -8.39578        13.07842        -9.73068
   S       -7.60634        14.50280        -9.05080
   C       -9.44351        13.22848       -10.70005
   C       -9.88723        14.46821       -11.12679
   C      -10.91786        14.62633       -12.06299
   C      -11.55912        13.55291       -12.62253
   C      -11.14846        12.27042       -12.22793
   C      -10.09040        12.09541       -11.26626
   N       -9.85099        10.80778       -11.02602
   S      -10.84903         9.91422       -11.91412
   N      -11.63764        11.10226       -12.64970
   H       -3.71660        -1.81928        -2.61854
   H       -3.92824         0.17946        -4.07849
   H       -3.37522         2.40012        -3.26207
   H       -1.79945         2.75117         1.17218
   H       -0.48671         8.76105         1.98696
   H       -1.93488        10.89456        -1.92149
   H        0.65895        13.57517         1.55882
   H       -1.47621        16.59892        -3.43002
   H       -0.13343        18.16246        -1.86294
   H       -2.62662        12.21951        -3.46810
   H       -2.87162        15.17820        -4.20655
   H       -3.88592        11.51044        -5.16397
   H       -8.25419        10.94553        -9.50290
   H       -9.42100        15.35380       -10.71862
   H      -11.20810        15.62784       -12.34310
   H      -12.35368        13.66332       -13.34165
*
