# ORCA input file
# SCF done       -212.129406992153          0.000477480114
! CAM-B3LYP def2-SVP def2/J RIJCOSX Grid4 TightSCF
%maxcore 5000
%tddft
    Mode sTDDFT
    Ethresh 5.0
    maxcore 5000
end

%pal
  nprocs 6
  end
* xyz 0 1
   C       -0.80988         3.33326        -0.64625
   C       -0.64593         3.73518        -1.96539
   C        0.22119         3.06231        -2.81652
   C        0.91816         1.97954        -2.31296
   C        0.75331         1.57519        -0.98250
   C       -0.11111         2.24638        -0.13749
   C        1.61087         0.40045        -0.69204
   O        1.68583        -0.17530         0.37309
   C        2.32384         0.10973        -1.95035
   C        1.89506         1.09068        -2.97904
   O        2.27975         1.14141        -4.12655
   C        3.24484        -0.83455        -2.28332
   C        3.83376        -1.86671        -1.52225
   C        3.65179        -2.26243        -0.20476
   C        4.46166        -3.34057         0.13478
   C        5.27549        -3.77704        -0.93303
   S        5.03814        -2.86684        -2.34649
   C        6.06464        -4.86449        -0.48488
   C        5.75406        -5.12223         0.85967
   C        4.73577        -4.17538         1.29448
   C        4.17094        -4.10163         2.53231
   C        4.53892        -4.98571         3.57030
   N        4.83456        -5.70075         4.41637
   C        3.18467        -3.15534         2.88885
   N        2.38285        -2.40818         3.22313
   C        6.49321        -6.18023         1.39174
   C        7.36030        -6.72238         0.46351
   S        7.26366        -5.91893        -1.09382
   C        8.27674        -7.79245         0.65161
   C        9.15920        -8.29839        -0.26014
   C        9.95816        -9.34978         0.24470
   C       10.98300       -10.05534        -0.41765
   C       11.39501        -9.75387        -1.77336
   C       11.77322       -10.63411        -2.74669
   C       12.17769        -9.99384        -3.93805
   C       12.13023        -8.63082        -3.89110
   S       11.55772        -8.11275        -2.34217
   C       12.48846        -7.64874        -4.94457
  Cl       12.68732       -10.87616        -5.32516
   C       11.61660       -11.05354         0.31452
   C       11.29598       -11.36285         1.66055
   C       10.27513       -10.65189         2.32526
   C        9.62785        -9.66628         1.58658
   S        8.36927        -8.62241         2.19042
   C        9.92141       -10.89555         3.70877
   C        8.67562       -10.87312         4.26848
   C        8.69588       -11.09757         5.66199
   C        9.94234       -11.27844         6.18723
   S       11.13076       -11.18412         4.93273
   C       10.33290       -11.52854         7.59705
  Cl        7.25662       -11.13548         6.60525
   C       12.11112       -12.40172         2.16780
   C       13.04378       -12.85255         1.27718
   S       12.93782       -12.02955        -0.26448
   C       14.03526       -13.85029         1.48128
   C       14.98761       -14.27887         0.57733
   C       15.82845       -15.24835         1.12518
   C       15.50731       -15.55779         2.45643
   S       14.17127       -14.65954         3.03219
   C       16.42429       -16.52854         2.92978
   C       17.33255       -16.83337         1.89269
   C       16.97968       -16.04445         0.72267
   C       17.58506       -16.03990        -0.49810
   C       18.69663       -16.84862        -0.82340
   N       19.59425       -17.48908        -1.13487
   C       17.13194       -15.21387        -1.55002
   N       16.76923       -14.54458        -2.40736
   C       18.29566       -17.76293         2.26817
   C       18.13679       -18.17794         3.58255
   S       16.75131       -17.39358         4.35417
   C       18.87872       -19.07752         4.37731
   C       20.00730       -19.78794         4.10746
   C       20.58307       -20.65313         5.16784
   O       20.13688       -20.81555         6.28219
   C       21.79924       -21.25987         4.58383
   C       22.70751       -22.13707         5.14713
   C       23.77943       -22.55711         4.37017
   C       23.93584       -22.11046         3.06461
   C       23.02560       -21.22909         2.49620
   C       21.95800       -20.80878         3.26783
   C       20.86005       -19.87928         2.90696
   O       20.72620       -19.32427         1.83662
   H       -1.49099         3.87561        -0.00720
   H       -1.20202         4.58438        -2.33415
   H        0.35407         3.36754        -3.84306
   H       -0.22990         1.92579         0.88611
   H        3.58709        -0.77473        -3.31443
   H        2.95631        -1.76570         0.44997
   H        6.42128        -6.54815         2.39939
   H        9.22703        -7.92137        -1.26412
   H       11.73380       -11.70247        -2.64445
   H       12.79160        -8.17564        -5.84570
   H       13.30954        -7.01317        -4.61376
   H       11.63995        -7.00605        -5.17672
   H        7.76547       -10.74103         3.71394
   H        9.44310       -11.56681         8.22022
   H       10.98617       -10.73608         7.96120
   H       10.86971       -12.47251         7.68611
   H       12.01961       -12.80934         3.15783
   H       15.05344       -13.88829        -0.42219
   H       19.08961       -18.13480         1.64341
   H       18.49391       -19.22328         5.38451
   H       22.57834       -22.47886         6.16260
   H       24.50334       -23.24180         4.78683
   H       24.77894       -22.45428         2.48369
   H       23.13772       -20.87507         1.48287
*
