# ORCA input file
# SCF done       -198.337545449648          0.000697985620
! CAM-B3LYP def2-SVP def2/J RIJCOSX Grid4 TightSCF
%maxcore 5000
%tddft
    Mode sTDDFT
    Ethresh 5.0
    maxcore 5000
end

%pal
  nprocs 6
  end
* xyz 0 1
   C        4.31576         5.85466        -6.97370
   C        3.07810         6.13348        -7.48328
   F        2.97551         6.74669        -8.67629
   C        1.89513         5.80326        -6.80803
   C        1.97846         5.17807        -5.59512
   C        3.22881         4.86540        -5.02336
   C        4.42045         5.21305        -5.72439
   C        5.68699         4.91876        -5.16691
   C        5.75436         4.29370        -3.95181
   C        4.56034         3.92672        -3.26691
   C        3.32563         4.20773        -3.77661
   C        4.91305         3.21612        -2.02443
   O        4.17084         2.80082        -1.16387
   C        6.39412         3.05337        -2.07263
   C        6.89901         3.89375        -3.13564
   C        8.15234         4.44256        -3.22988
   C        9.17736         4.22003        -2.29109
   N       10.03196         4.07640        -1.53757
   C        8.52911         5.37129        -4.22252
   N        8.88394         6.13302        -5.00386
   C        6.97190         2.14506        -1.23456
   C        8.23191         1.52253        -1.32807
   C        9.09064         1.43227        -2.41589
   C       10.23132         0.69853        -2.12712
   C       10.25156         0.20597        -0.80427
   S        8.85749         0.64162         0.06587
   C       11.45837        -0.51196        -0.61427
   C       12.20151        -0.46217        -1.80730
   C       11.46012         0.30479        -2.79339
   C       11.84207         0.61305        -4.06640
   C       13.07032         0.18074        -4.60884
   N       14.06365        -0.17424        -5.05873
   C       11.01617         1.38085        -4.91427
   N       10.32743         1.99820        -5.59226
   C       13.41116        -1.14698        -1.72448
   C       13.59572        -1.72740        -0.48366
   S       12.25365        -1.40998         0.60238
   C       14.71543        -2.52128        -0.07865
   C       14.81520        -3.14020         1.15985
   C       15.89637        -3.94217         1.52225
   C       16.97395        -4.18070         0.68218
   C       16.92560        -3.52995        -0.57184
   C       15.80762        -2.72934        -0.95320
   N       16.04064        -2.28795        -2.19765
   N       17.19959        -2.79276        -2.51186
   N       17.77917        -3.53317        -1.60995
   C       17.79892        -2.52867        -3.78364
   C       18.09194        -5.04088         1.03230
   C       19.36411        -4.77507         0.55596
   C       20.45914        -5.55439         0.90762
   C       20.34296        -6.64161         1.75804
   C       19.03408        -7.00595         2.19272
   N       18.85531        -8.14930         2.87835
   C       17.65141        -8.44831         3.28769
   C       16.55590        -7.61471         3.00563
   N       16.68647        -6.53933         2.27723
   C       17.91455        -6.19331         1.85216
   C       21.49997        -7.40953         2.12178
   C       21.70601        -8.16119         3.22800
   C       22.77153        -9.20630         3.21411
   O       23.68614        -9.29723         2.42929
   C       22.42001       -10.12256         4.31516
   C       22.97737       -11.32544         4.64143
   C       22.44470       -12.06123         5.72321
   C       21.33614       -11.53361         6.44813
   C       20.80364       -12.27860         7.51853
   C       21.35997       -13.48541         7.83924
   C       22.45085       -14.02011         7.14004
   C       22.98019       -13.31070         6.09833
   F       20.85137       -14.19837         8.86046
   C       20.78497       -10.28027         6.09381
   C       21.32219        -9.58213         5.04614
   C       20.97678        -8.28411         4.47615
   C       20.29231        -7.29104         5.12389
   C       20.13961        -5.98701         4.61314
   N       20.00094        -4.90843         4.24500
   C       19.66420        -7.45888         6.37373
   N       19.11431        -7.55256         7.37720
   H        5.20554         6.12659        -7.51964
   H        0.94688         6.04848        -7.25947
   H        1.08125         4.91293        -5.05629
   H        6.57284         5.18256        -5.72264
   H        2.43281         3.92885        -3.23732
   H        6.33063         1.80603        -0.42620
   H        8.85936         1.84409        -3.38106
   H       14.13901        -1.23921        -2.50903
   H       14.01528        -3.00051         1.87309
   H       15.89745        -4.38907         2.50234
   H       17.07101        -1.99739        -4.39308
   H       18.08255        -3.46781        -4.25767
   H       18.69254        -1.91630        -3.65543
   H       19.51017        -3.92282        -0.08781
   H       21.43896        -5.27748         0.54725
   H       17.53837        -9.37877         3.82781
   H       15.55799        -7.85364         3.34670
   H       22.29137        -7.45331         1.37952
   H       23.81271       -11.71390         4.07823
   H       19.96675       -11.89635         8.08190
   H       22.84749       -14.97751         7.43853
   H       23.82037       -13.70168         5.54444
   H       19.94161        -9.90732         6.65345
*
