# ORCA input file
# SCF done       -223.820088974989          0.000654599686
! CAM-B3LYP def2-SVP def2/J RIJCOSX Grid4 TightSCF
%maxcore 5000
%tddft
    Mode sTDDFT
    Ethresh 5.0
    maxcore 5000
end

%pal
  nprocs 6
  end
* xyz 0 1
   C        7.74549        -9.33559       -12.22784
   C        7.32975        -9.55048       -13.51232
   F        7.63887       -10.70869       -14.12377
   C        6.58581        -8.60403       -14.22981
   C        6.26193        -7.42128       -13.62537
   C        6.66493        -7.14678       -12.30244
   C        7.41963        -8.12338       -11.58923
   C        7.82743        -7.87497       -10.25767
   C        7.49325        -6.68794        -9.66573
   C        6.75285        -5.70788       -10.38841
   C        6.34026        -5.92485       -11.67112
   C        6.56136        -4.51611        -9.53805
   O        5.93765        -3.51039        -9.79279
   C        7.35633        -4.78464        -8.31083
   C        7.73707        -6.17891        -8.31916
   C        7.98820        -6.95373        -7.21563
   C        7.91811        -6.46559        -5.89522
   N        7.82037        -6.11614        -4.80557
   C        8.23759        -8.33897        -7.27166
   N        8.45846        -9.46544        -7.26671
   C        7.65637        -3.76412        -7.45800
   C        8.69544        -3.67982        -6.50756
   S       10.17249        -4.62705        -6.63671
   C       10.77828        -3.88977        -5.21817
   C        9.88901        -2.95919        -4.66918
   C        8.73363        -2.81936        -5.41526
   C       10.44528        -2.37909        -3.39086
   C       10.64538        -0.86475        -3.49593
   C        9.54727        -2.73033        -2.20090
   C       11.76740        -3.10540        -3.31311
   C       11.92876        -3.96492        -4.40471
   S       13.42180        -4.80419        -4.36544
   C       13.83260        -4.02256        -2.85251
   C       12.83854        -3.14524        -2.43596
   C       15.06124        -4.35493        -2.22467
   C       15.38354        -4.00008        -0.95765
   C       16.58720        -4.32463        -0.27422
   C       17.80260        -4.81457        -0.73929
   C       18.07397        -5.00688        -2.10221
   N       18.28763        -5.13923        -3.22174
   C       18.74304        -5.03067         0.30878
   C       18.20433        -4.69106         1.54533
   S       16.59325        -4.10274         1.46482
   S       19.25154        -4.92187         2.90628
   C       20.45801        -5.48571         1.79864
   C       20.08493        -5.49727         0.45959
   C       21.14831        -5.96533        -0.36498
   C       21.07457        -6.12505        -1.75615
   N       21.04177        -6.27684        -2.89297
   C       22.28626        -6.28842         0.36675
   S       22.06233        -6.03208         2.08387
   C       23.54639        -6.75752        -0.09404
   S       24.71731        -7.32936         1.08322
   C       25.84377        -7.62522        -0.17325
   C       25.33958        -7.29808        -1.43337
   C       24.03960        -6.81306        -1.38878
   C       26.37078        -7.55696        -2.50607
   C       25.89648        -8.63552        -3.48494
   C       26.73418        -6.27201        -3.25489
   C       27.52345        -8.05469        -1.66574
   C       27.16705        -8.09459        -0.31107
   S       28.42401        -8.68425         0.68655
   C       29.46959        -8.85035        -0.71778
   C       28.82075        -8.47443        -1.89264
   C       30.78003        -9.34020        -0.55327
   C       31.74031        -9.29217        -1.52255
   C       33.00649        -9.87195        -1.35097
   C       34.06212        -9.91565        -2.22203
   C       35.38375       -10.32859        -1.68019
   O       35.59187       -10.84007        -0.60162
   C       36.37137        -9.93908        -2.70158
   C       37.73336        -9.99813        -2.64437
   C       38.49038        -9.51025        -3.73276
   C       37.81234        -8.95978        -4.85852
   C       38.57062        -8.45942        -5.93484
   C       39.93532        -8.51606        -5.87775
   C       40.62034        -9.05660        -4.78117
   C       39.89965        -9.54518        -3.72703
   F       40.66172        -8.03784        -6.90516
   C       36.39839        -8.91994        -4.89168
   C       35.68486        -9.41298        -3.83262
   C       34.24123        -9.51867        -3.59926
   C       33.30089        -9.41158        -4.59450
   C       31.92205        -9.68015        -4.49517
   N       30.79166        -9.88653        -4.52902
   C       33.60830        -9.07594        -5.93105
   N       33.77371        -8.79456        -7.03201
   H        8.31378       -10.08834       -11.70417
   H        6.28581        -8.82890       -15.24101
   H        5.68959        -6.67663       -14.15789
   H        8.40434        -8.62618        -9.74153
   H        5.77206        -5.17393       -12.19942
   H        7.05415        -2.86801        -7.57807
   H        7.91554        -2.16297        -5.17962
   H        9.68682        -0.37066        -3.63214
   H       11.28555        -0.62466        -4.34188
   H       11.10953        -0.48576        -2.58893
   H        8.58081        -2.24491        -2.30819
   H       10.00768        -2.39764        -1.27396
   H        9.39162        -3.80526        -2.15158
   H       12.91480        -2.56004        -1.53818
   H       15.74619        -4.95461        -2.80571
   H       14.66040        -3.46106        -0.36047
   H       23.47112        -6.50017        -2.24396
   H       25.02333        -8.28469        -4.02874
   H       25.63236        -9.54437        -2.94916
   H       26.68744        -8.86624        -4.19357
   H       25.86414        -5.89239        -3.78405
   H       27.52345        -6.47358        -3.97428
   H       27.08030        -5.51073        -2.55909
   H       29.28349        -8.55510        -2.85959
   H       31.02134        -9.78239         0.40517
   H       31.52028        -8.77844        -2.44281
   H       33.21912       -10.30531        -0.37791
   H       38.22767       -10.40801        -1.77631
   H       38.07691        -8.03948        -6.79731
   H       41.69860        -9.07470        -4.79249
   H       40.40427        -9.96591        -2.87027
   H       35.91950        -8.48682        -5.75494
*
