# ORCA input file
# SCF done       -185.066156223049          0.000601424896
! CAM-B3LYP def2-SVP def2/J RIJCOSX Grid4 TightSCF
%maxcore 5000
%tddft
    Mode sTDDFT
    Ethresh 5.0
    maxcore 5000
end

%pal
  nprocs 6
  end
* xyz 0 1
   C       -2.55926         3.53716         0.70239
   C       -2.11344         3.93996         1.95254
   C       -1.70392         3.01352         2.90127
   C       -1.71705         1.65501         2.62304
   C       -2.15529         1.24214         1.37599
   C       -2.58705         2.18192         0.41283
   C       -3.02230         1.46783        -0.78039
   C       -3.37966         2.03985        -1.97182
   C       -3.37082         3.43036        -2.21455
   N       -3.38785         4.54596        -2.48314
   C       -3.76118         1.34035        -3.13619
   N       -4.07806         0.83885        -4.11942
   C       -3.00218         0.04610        -0.44989
   C       -2.25497        -0.08802         0.79684
   C       -1.53609        -1.17886         1.20589
   C       -1.43886        -2.38632         0.48494
   N       -1.29082        -3.37557        -0.07860
   C       -0.71516        -1.19441         2.35393
   N       -0.02785        -1.26806         3.26955
   C       -3.66391        -0.91807        -1.15984
   C       -4.03904        -2.20320        -0.71437
   C       -4.21627        -2.66685         0.58401
   C       -4.62456        -3.99070         0.61619
   C       -4.76879        -4.55550        -0.67059
   S       -4.43004        -3.43892        -1.90711
   C       -5.14278        -5.91254        -0.52544
   C       -5.23984        -6.20405         0.85298
   C       -4.91256        -5.00948         1.61145
   C       -4.84440        -4.86856         2.96681
   C       -5.13431        -5.92562         3.85509
   N       -5.37392        -6.77755         4.58370
   C       -4.47053        -3.64291         3.55714
   N       -4.16477        -2.63895         4.01968
   C       -5.58116        -7.52983         1.10105
   C       -5.73582        -8.23909        -0.07755
   S       -5.46786        -7.27040        -1.50898
   C       -6.03071        -9.62177        -0.23707
   N       -6.05969       -10.09927        -1.47774
   N       -6.24684       -11.34261        -1.76147
   C       -6.42961       -12.28440        -0.83124
   C       -6.46759       -11.88640         0.54194
   C       -6.25958       -10.50600         0.85455
   N       -6.31165       -10.27245         2.16152
   S       -6.59663       -11.66386         2.92209
   N       -6.66370       -12.62232         1.62865
   C       -6.54784       -13.65279        -1.17504
   C       -6.45698       -14.17765        -2.43800
   C       -6.28803       -13.50759        -3.67763
   C       -6.19357       -14.34499        -4.74485
   C       -6.27187       -15.71924        -4.40845
   S       -6.50712       -15.91292        -2.69137
   C       -6.14127       -16.80362        -5.25931
   C       -5.93272       -16.78250        -6.65782
   C       -5.78747       -18.02032        -7.20723
   C       -5.87113       -19.08112        -6.27265
   S       -6.16774       -18.44612        -4.66719
   C       -5.71613       -20.42347        -6.54222
   C       -5.78815       -21.41190        -5.55842
   C       -5.56731       -22.75210        -5.77513
   C       -5.61952       -23.80788        -4.79199
   C       -6.03529       -23.70559        -3.48714
   C       -6.49939       -22.52932        -2.86334
   N       -6.89493       -21.61982        -2.28329
   C       -6.07688       -24.78669        -2.58308
   N       -6.13560       -25.62000        -1.79488
   C       -5.17676       -25.04071        -5.44495
   C       -4.91703       -24.76793        -6.80047
   C       -5.16488       -23.34250        -7.07605
   O       -5.05005       -22.77690        -8.14538
   C       -4.48110       -25.75780        -7.65880
   C       -4.29580       -27.03554        -7.15265
   C       -4.53882       -27.32393        -5.81271
   C       -4.98534       -26.31846        -4.95304
   C       -4.33964       -28.70601        -5.27746
   H       -2.88155         4.27112        -0.01758
   H       -2.09179         4.99248         2.19019
   H       -1.37230         3.35200         3.87078
   H       -1.40853         0.94227         3.37041
   H       -3.99915        -0.66647        -2.15707
   H       -4.08848        -2.04551         1.45192
   H       -5.71056        -7.98379         2.06703
   H       -6.68585       -14.32591        -0.34048
   H       -6.23944       -12.43395        -3.70639
   H       -6.05874       -14.01675        -5.75959
   H       -5.89253       -15.86416        -7.21505
   H       -5.61530       -18.20986        -8.25169
   H       -5.51327       -20.71800        -7.56213
   H       -6.01649       -21.07971        -4.55283
   H       -4.28917       -25.52897        -8.69584
   H       -3.95259       -27.82329        -7.80728
   H       -5.16748       -26.55679        -3.91745
   H       -3.78881       -29.32518        -5.98044
   H       -5.30640       -29.17338        -5.09015
   H       -3.80149       -28.67545        -4.33218
*
