# ORCA input file
# SCF done       -268.263231155238          0.000579373439
! CAM-B3LYP def2-SVP def2/J RIJCOSX Grid4 TightSCF
%maxcore 5000
%tddft
    Mode sTDDFT
    Ethresh 5.0
    maxcore 5000
end

%pal
  nprocs 6
  end
* xyz 0 1
   C        7.36487         0.80785        -4.46521
   C        6.81153         0.50257        -3.25859
   C        5.99976         1.55224        -2.78818
   C        5.96564         2.63734        -3.67194
   S        6.91898         2.37149        -5.06195
   C        5.12418         3.64582        -3.12086
   C        4.63178         3.19071        -1.89005
   C        5.16729         1.85775        -1.63901
   C        4.93075         1.07140        -0.55003
   C        4.09631         1.49062         0.50757
   N        3.41849         1.83202         1.36701
   C        5.50353        -0.21019        -0.40851
   N        5.96605        -1.25243        -0.28866
   C        3.78844         4.11237        -1.26724
   C        3.63832         5.26225        -2.01869
   S        4.55546         5.20371        -3.51784
   C        2.86130         6.40957        -1.71401
   C        2.71907         7.54930        -2.48356
   C        1.88362         8.48554        -1.87631
   C        1.37924         8.05343        -0.63685
   S        1.93947         6.49321        -0.22059
   C        0.54216         9.07121        -0.10785
   C        0.53721        10.14917        -1.01148
   C        1.33273         9.79614        -2.17334
   C        1.42305        10.50363        -3.33749
   C        0.65815        11.67378        -3.51762
   N       -0.02700        12.58607        -3.63774
   C        2.20778        10.07189        -4.42631
   N        2.85384         9.71962        -5.30543
   C       -0.21382        11.23158        -0.56688
   C       -0.82419        10.98048         0.64738
   S       -0.42428         9.38115         1.26126
   C       -1.72942        11.84824         1.34410
   C       -1.80262        11.70901         2.80791
   C       -3.02600        11.65990         3.48036
   C       -3.10177        11.50723         4.85874
   C       -1.93608        11.38968         5.60983
   C       -0.70355        11.42540         4.96520
   C       -0.64698        11.58240         3.58555
   F        0.55423        11.64565         3.00826
   F        0.42054        11.31343         5.67076
   F       -2.00118        11.24312         6.93027
   F       -4.29106        11.47336         5.46155
   F       -4.16949        11.74586         2.79190
   C       -2.50920        12.75323         0.66419
   C       -2.71404        12.67051        -0.79629
   C       -3.05173        11.47687        -1.43762
   C       -3.26023        11.41762        -2.80832
   C       -3.16489        12.57294        -3.58020
   C       -2.85664        13.78170        -2.96369
   C       -2.63471        13.81621        -1.59174
   F       -2.31032        14.98394        -1.02777
   F       -2.77978        14.89798        -3.68204
   F       -3.37770        12.51842        -4.89163
   F       -3.55763        10.25136        -3.38725
   F       -3.17586        10.35098        -0.72537
   C       -3.24676        13.83587         1.26861
   O       -4.42684        14.13632         0.70458
   C       -4.97355        15.17976         1.35881
   C       -4.11484        15.58891         2.38454
   C       -2.98892        14.72562         2.31386
   C       -1.69824        14.86041         3.03442
   F       -0.68305        14.25770         2.40342
   F       -1.31732        16.13295         3.19517
   F       -1.72152        14.32374         4.28646
   O       -4.45172        16.60048         3.19166
   C       -3.83556        16.75294         4.45891
   C       -6.21591        15.74765         0.97335
   C       -7.04401        15.21548         0.04782
   C       -8.26729        15.81483        -0.36443
   C       -9.24729        15.24273        -1.12787
   C      -10.34946        16.09476        -1.37967
   C      -11.51006        15.81754        -2.12964
   C      -11.77346        14.48305        -2.62672
   C      -11.58636        13.30051        -1.96890
   C      -11.96526        12.18223        -2.74198
   C      -12.43466        12.48913        -3.98609
   S      -12.42235        14.20490        -4.21901
   C      -12.91109        11.57318        -5.05272
  Cl      -11.84140        10.57007        -2.14557
   C      -12.39255        16.87564        -2.32370
   C      -12.18506        18.16743        -1.78449
   C      -11.03748        18.43843        -1.01687
   C      -10.15709        17.38112        -0.81671
   S       -8.66301        17.46610         0.07277
   C      -10.77892        19.76690        -0.49536
   C      -10.92370        20.96013        -1.14162
   C      -10.56311        22.06237        -0.33576
   C      -10.14854        21.73127         0.92082
   S      -10.19244        20.01203         1.12619
   C       -9.69885        22.62386         2.01877
  Cl      -10.64398        23.68468        -0.91110
   C      -13.27528        19.03796        -2.07749
   C      -14.24217        18.44262        -2.80530
   S      -13.90495        16.79125        -3.18622
   H        8.02136         0.20271        -5.05784
   H        6.97987        -0.42435        -2.74170
   H        3.30223         3.96855        -0.31901
   H        3.20803         7.67938        -3.43237
   H       -0.27592        12.17750        -1.06995
   H       -4.55114        17.31097         5.06152
   H       -2.90946        17.32594         4.38392
   H       -3.64086        15.78888         4.93272
   H       -6.47587        16.66196         1.48667
   H       -6.79281        14.27095        -0.41591
   H       -9.17165        14.24306        -1.51490
   H      -11.23641        13.22480        -0.95598
   H      -12.85629        10.54482        -4.70430
   H      -12.30009        11.67617        -5.94889
   H      -13.94155        11.80238        -5.32172
   H      -11.23250        21.05636        -2.16608
   H       -9.78071        23.66142         1.70466
   H       -8.66198        22.41464         2.28057
   H      -10.30670        22.47344         2.91004
   H      -13.33190        20.05321        -1.73170
   H      -15.16086        18.87157        -3.15492
*
