# ORCA input file
# SCF done       -198.990657839304          0.000703426148
! CAM-B3LYP def2-SVP def2/J RIJCOSX Grid4 TightSCF
%maxcore 5000
%tddft
    Mode sTDDFT
    Ethresh 5.0
    maxcore 5000
end

%pal
  nprocs 6
  end
* xyz 0 1
   C       -4.55679        -0.63220        -6.49816
   C       -3.63938        -1.01300        -5.56610
   C       -3.25140         0.07174        -4.75703
   C       -3.90154         1.26064        -5.11110
   S       -4.97487         1.04701        -6.42114
   C       -3.45666         2.29700        -4.24392
   C       -2.52519         1.75715        -3.34425
   C       -2.36440         0.33730        -3.63969
   C       -1.55199        -0.54951        -2.99675
   C       -0.73014        -0.16939        -1.91449
   N       -0.05933         0.13633        -1.03651
   C       -1.47922        -1.90825        -3.37015
   N       -1.41741        -3.01339        -3.66907
   C       -2.03211         2.69656        -2.43940
   C       -2.58474         3.95026        -2.64519
   S       -3.72618         3.95987        -3.98172
   C       -2.34067         5.13709        -1.90835
   C       -1.50501         5.29421        -0.81262
   C       -1.53577         6.59591        -0.31944
   C       -2.39825         7.44192        -1.04577
   S       -3.16514         6.62866        -2.33647
   C       -2.39045         8.72521        -0.45875
   C       -1.51761         8.69473         0.65207
   C       -0.94676         7.36248         0.76790
   C       -0.05187         6.92655         1.69993
   C        0.44729         7.76890         2.71619
   N        0.85783         8.44309         3.54788
   C        0.43614         5.60256         1.71070
   N        0.83773         4.52876         1.72269
   C       -1.46165         9.90582         1.32357
   C       -2.28144        10.86501         0.73614
   S       -3.12280        10.25581        -0.68173
   C       -2.49555        12.18913         1.18690
   C       -3.35094        13.06987         0.48246
   C       -3.64444        14.41343         0.91978
   N       -4.51005        15.15248         0.21235
   C       -5.05896        14.66108        -0.87221
   C       -4.73590        13.34379        -1.32883
   N       -3.90636        12.59864        -0.63854
   C       -5.30751        12.82240        -2.51469
   N       -5.77982        12.42033        -3.47774
   C       -6.00349        15.43817        -1.59040
   N       -6.78381        16.01631        -2.19680
   C       -3.06656        14.94005         2.10259
   C       -2.21133        14.05831         2.80346
   C       -1.91755        12.71778         2.36363
   N       -1.08504        12.10050         3.20143
   S       -0.70792        13.08552         4.40847
   N       -1.58094        14.35258         3.94019
   C       -3.32509        16.24021         2.60860
   C       -4.02023        17.28337         2.00629
   C       -4.10443        18.39759         2.82778
   C       -3.47788        18.20643         4.07885
   S       -2.74847        16.66860         4.21659
   C       -3.66410        19.37492         4.84907
   C       -4.40090        20.30989         4.09571
   C       -4.68172        19.73206         2.79012
   C       -5.32328        20.32286         1.74245
   C       -5.83991        21.63356         1.82255
   N       -6.25909        22.69838         1.89021
   C       -5.48665        19.67138         0.50035
   N       -5.60272        19.15398        -0.51572
   C       -4.65811        21.48979         4.78980
   C       -4.12836        21.46270         6.07042
   S       -3.28960        19.95636         6.41099
   C       -4.21801        22.47073         7.06421
   C       -4.84056        23.70410         6.96486
   C       -4.74760        24.42991         8.15218
   C       -4.05100        23.74765         9.16043
   S       -3.50662        22.21406         8.65071
   C       -4.02128        24.56593        10.32384
   C       -4.69839        25.76017        10.04760
   C       -5.17703        25.72162         8.67818
   C       -5.88053        26.68556         8.01822
   C       -6.24495        27.90230         8.63282
   N       -6.54339        28.89201         9.12900
   C       -6.29177        26.53216         6.67708
   N       -6.62732        26.40960         5.58777
   C       -4.72084        26.63205        11.15280
   C       -4.07372        26.09229        12.22274
   S       -3.42054        24.51631        11.92107
   H       -5.02680        -1.24222        -7.24337
   H       -3.26716        -2.01647        -5.47020
   H       -1.31257         2.48937        -1.66925
   H       -0.91666         4.49483        -0.40182
   H       -0.87643        10.11825         2.19935
   H       -4.43742        17.19982         1.02035
   H       -5.20617        22.32609         4.39733
   H       -5.33285        24.04493         6.07309
   H       -5.18605        27.60063        11.16316
   H       -3.93392        26.52614        13.19256
*
