# ORCA input file
# SCF done       -159.947023173213          0.000457842178
! CAM-B3LYP def2-SVP def2/J RIJCOSX Grid4 TightSCF
%maxcore 5000
%tddft
    Mode sTDDFT
    Ethresh 5.0
    maxcore 5000
end

%pal
  nprocs 6
  end
* xyz 0 1
   C       -2.69603        -0.99519         4.93341
   C       -2.87313         0.23753         5.48062
   C       -2.37237         1.25108         4.63912
   C       -1.82181         0.73876         3.45700
   S       -1.91836        -0.96382         3.38239
   C       -1.34828         1.82401         2.66917
   C       -1.59822         3.01656         3.35942
   C       -2.25745         2.69470         4.62182
   C       -2.68411         3.57545         5.57373
   C       -2.53577         4.97182         5.44637
   N       -2.43130         6.11123         5.36318
   C       -3.31593         3.14709         6.75989
   N       -3.83035         2.80731         7.72715
   C       -1.16690         4.14637         2.66899
   C       -0.58762         3.83021         1.45048
   S       -0.58559         2.09560         1.16465
   C       -0.08474         4.77027         0.51392
   S       -0.22999         6.45924         0.89702
   C        0.48278         6.93140        -0.62541
   C        0.79988         5.81102        -1.37830
   C        0.50437         4.59785        -0.72689
   C        0.80067         3.25416        -1.31486
   C        1.72331         3.36095        -2.53665
   C        3.07845         3.63394        -2.11349
   N        4.14603         3.85734        -1.77359
   C        1.23897         4.49273        -3.46605
   C       -0.14034         4.25614        -3.82892
   N       -1.23338         4.06873        -4.10355
   C        1.37143         5.85105        -2.76230
   C        0.64847         8.33054        -0.86795
   C        0.14803         9.25724         0.01445
   C        0.26715        10.63949        -0.09577
   C        0.96318        11.25942        -1.22970
   C        1.54543        10.55155        -2.21967
   S        1.54941         8.83472        -2.29746
   C        0.86627        12.65768        -1.00090
   C        0.17042        12.90109         0.18850
   C        0.06058        14.28516         0.45294
   C        0.65658        15.03221        -0.51235
   S        1.37682        14.10106        -1.78139
   C       -0.20943        11.63900         0.76876
   C       -0.90034        11.36963         1.97815
   C       -1.39943        12.24857         2.87130
   C       -2.05099        11.78573         4.07540
   N       -2.13470        10.46366         4.27679
   C       -2.71232        10.05627         5.38892
   C       -3.22088        10.94259         6.32721
   C       -3.10181        12.30706         6.03398
   N       -2.51625        12.71286         4.90699
   C       -3.60814        13.31444         6.94649
   C       -3.55737        14.62349         6.65725
   C       -4.03062        15.70412         7.48445
   C       -3.99247        17.01614         7.00909
   C       -4.43910        18.13725         7.75553
   N       -4.31996        19.33195         7.10544
   C       -3.82352        19.18678         5.94285
   S       -3.42157        17.55626         5.45781
   C       -4.94584        17.97379         9.03848
   C       -4.98816        16.68548         9.52752
   C       -4.54755        15.55469         8.78501
   N       -4.67594        14.37622         9.45862
   C       -5.16826        14.53577        10.62231
   S       -5.56009        16.17142        11.08906
   H       -2.97575        -1.94455         5.34388
   H       -3.33760         0.40571         6.43499
   H       -1.26228         5.15929         3.01705
   H       -0.13534         2.76940        -1.61368
   H        1.27314         2.61691        -0.56085
   H        1.72532         2.40578        -3.07597
   H        1.83383         4.50289        -4.38750
   H        0.85539         6.61021        -3.35564
   H        2.42998         6.12746        -2.71856
   H       -0.38858         8.86962         0.86999
   H        2.06016        11.01088        -3.04865
   H       -0.42848        14.71812         1.30545
   H        0.72441        16.10131        -0.56660
   H       -1.03814        10.32513         2.22497
   H       -1.33942        13.31756         2.75135
   H       -2.76340         8.98319         5.52731
   H       -3.68818        10.60358         7.23730
   H       -4.03416        12.96636         7.87509
   H       -3.12849        14.91537         5.70633
   H       -3.64762        20.00111         5.26712
   H       -5.28331        18.82231         9.60848
   H       -5.34529        13.72817        11.30567
*
