# ORCA input file
# SCF done       -200.457038334213          0.000222704803
! CAM-B3LYP def2-SVP def2/J RIJCOSX Grid4 TightSCF
%maxcore 5000
%tddft
    Mode sTDDFT
    Ethresh 5.0
    maxcore 5000
end

%pal
  nprocs 6
  end
* xyz 0 1
   C       -5.54432         5.40507        -8.75505
   C       -5.89082         4.37017        -9.58573
   C       -5.59921         4.32811       -10.96535
   N       -5.38845         4.22555       -12.08889
   C       -6.60975         3.22351        -9.19011
   N       -7.20422         2.27468        -8.93239
   C       -4.86045         6.62777        -9.15781
   C       -4.80068         7.50411        -8.04165
   C       -4.19272         8.73505        -8.10566
   C       -3.61039         9.11273        -9.32023
   C       -3.67750         8.23201       -10.42647
   C       -4.29890         6.99072       -10.36528
   S       -2.90197         8.89862       -11.82445
   C       -2.51280        10.33756       -10.92447
   C       -2.92766        10.31772        -9.63538
  Br       -1.59714        11.73789       -11.76784
   C       -5.43730         6.84788        -6.89188
   O       -5.59754         7.32172        -5.76954
   C       -5.81919         5.51560        -7.33665
   C       -6.23025         4.48750        -6.51745
   C       -6.46727         4.46533        -5.14757
   S       -6.45411         5.84520        -4.07371
   C       -6.84993         4.87306        -2.70624
   C       -6.95053         3.50210        -3.03753
   C       -6.75284         3.28072        -4.42365
   C       -6.83636         1.96976        -4.92181
   C       -7.09655         0.93673        -4.06239
   C       -7.16955        -0.48248        -4.55961
   F       -6.92473        -0.58027        -5.87174
   F       -6.27334        -1.27811        -3.95210
   F       -8.37486        -1.03531        -4.35536
   C       -7.30514         1.14918        -2.66893
   O       -7.56170         0.04207        -1.95027
   C       -7.77480         0.15244        -0.56143
   C       -7.23433         2.43068        -2.17087
   N       -6.95828         5.26344        -1.40760
   C       -7.20595         6.41117        -0.70727
   S       -7.43254         6.11098         1.00313
   C       -7.76748         7.78650         1.26047
   N       -8.03674         8.20941         2.56556
   O       -8.27709         9.38918         2.74068
   O       -8.01156         7.35079         3.43229
   C       -7.70834         8.51466         0.10500
   C       -7.38337         7.75501        -1.03976
   C       -7.22951         8.40307        -2.32611
   C       -7.95248         9.48208        -2.66521
   C       -7.79366        10.29722        -3.84304
   C       -6.65155        10.59999        -4.47725
   C       -5.29649        10.12037        -4.08256
   C       -6.69412        11.54108        -5.65209
   N       -7.77572        11.22468        -6.55636
   C       -8.10165        11.99360        -7.60002
   C       -7.83325        13.32929        -7.72744
   C       -8.10585        14.07297        -8.88398
   C       -8.22666        13.63298       -10.18199
   C       -7.80153        12.43238       -10.84485
   C       -6.80112        11.56524       -10.45331
   C       -6.40407        10.42427       -11.16910
   N       -6.04102         9.44963       -11.65992
   C       -5.99401        11.72664        -9.31896
   N       -5.24898        11.79694        -8.44374
   C       -8.42681        12.41079       -12.16622
   C       -9.07210        13.65322       -12.38211
   C       -8.91880        14.48966       -11.17133
   O       -9.30628        15.62609       -11.00779
   C       -9.71621        13.95640       -13.55504
   C       -9.73192        12.98326       -14.56159
   C       -9.09507        11.74150       -14.33208
   C       -8.43660        11.43755       -13.14608
   S       -9.24092        10.68453       -15.70388
   C      -10.13826        11.91120       -16.55768
   C      -10.32272        13.05274       -15.85276
  Br      -10.74900        11.56869       -18.29770
   H       -4.15904         9.39289        -7.25181
   H       -4.32786         6.35596       -11.23460
   H       -2.77960        11.12383        -8.94072
   H       -6.34919         3.52375        -6.99251
   H       -6.70008         1.76220        -5.97141
   H       -6.89402         0.55720        -0.05379
   H       -7.95471        -0.86335        -0.21606
   H       -8.64957         0.77105        -0.33964
   H       -7.40398         2.60563        -1.11989
   H       -6.95881         4.46100        -0.78509
   H       -7.86637         9.57768         0.09367
   H       -6.50381         7.99748        -3.00888
   H       -8.76417         9.79041        -2.01690
   H       -8.70383        10.77794        -4.18354
   H       -5.24693         9.92400        -3.01438
   H       -4.54076        10.85697        -4.34731
   H       -5.07157         9.19301        -4.61027
   H       -5.75166        11.51049        -6.21765
   H       -6.82202        12.56721        -5.28966
   H       -8.04671        10.25259        -6.56977
   H       -8.69992        11.50961        -8.36345
   H       -7.43697        13.87110        -6.88162
   H       -8.27359        15.13760        -8.75652
   H      -10.18986        14.91502       -13.69671
   H       -7.96839        10.47563       -13.01667
   H      -10.85285        13.90960       -16.22643
*
