# ORCA input file
# SCF done       -166.644397278866          0.000521005426
! CAM-B3LYP def2-SVP def2/J RIJCOSX Grid4 TightSCF
%maxcore 5000
%tddft
    Mode sTDDFT
    Ethresh 5.0
    maxcore 5000
end

%pal
  nprocs 6
  end
* xyz 0 2
   C       -9.12997        -0.56973        -3.83323
   C      -10.33692        -0.93227        -3.30615
   C      -10.83944        -2.25280        -3.33089
   N      -11.30122        -3.30310        -3.31999
   C      -11.23199        -0.08467        -2.61378
   N      -12.01083         0.50702        -2.01369
   C       -8.16360        -1.47499        -4.43418
   C       -6.94671        -0.77448        -4.62679
   C       -5.82227        -1.37110        -5.14631
   C       -5.91111        -2.71614        -5.50980
   C       -7.13485        -3.40749        -5.33169
   C       -8.26661        -2.80827        -4.79447
   S       -7.00969        -5.05764        -5.85869
   C       -5.33859        -4.79550        -6.29962
   C       -4.89520        -3.53831        -6.06668
  Br       -4.35219        -6.21279        -7.02601
   C       -7.09333         0.61932        -4.17693
   O       -6.19452         1.42254        -4.08249
   C       -8.54125         0.77547        -3.82863
   C       -9.25697         1.90520        -3.64371
   C       -8.84409         3.29646        -3.71050
   N       -9.80326         4.16895        -3.37693
   C       -9.49363         5.44984        -3.42275
   C       -8.23307         5.89852        -3.79350
   C       -7.29579         4.91708        -4.13539
   N       -7.62571         3.62545        -4.09350
   C       -5.94018         5.22956        -4.53796
   C       -5.09899         4.22723        -4.84004
   N       -3.79794         4.39111        -5.22061
   C       -2.97104         3.38967        -5.58525
   S       -3.52349         1.75010        -5.52455
   C       -1.94422         1.21070        -6.02951
   N       -1.74037        -0.15548        -6.20494
   O       -0.63454        -0.53700        -6.54116
   O       -2.70496        -0.88608        -6.01062
   C       -1.05713         2.23413        -6.21672
   C       -1.62164         3.50845        -5.99273
   C       -0.85095         4.69288        -6.18204
   C       -1.28480         5.98271        -6.28584
   C       -0.43911         7.08890        -6.43633
   C       -0.90827         8.38625        -6.47026
   C       -0.17353         9.57681        -6.63043
   C       -0.93667        10.71483        -6.59509
   C       -2.30496        10.47507        -6.39739
   S       -2.61360         8.76713        -6.26976
   C       -3.34875        11.39642        -6.29411
   C       -3.29460        12.79171        -6.40511
   C       -4.51771        13.39638        -6.25299
   C       -5.57389        12.50304        -6.01277
   S       -4.98337        10.86347        -5.98422
   C       -6.90948        12.84737        -5.82871
   C       -7.96772        11.99897        -5.57859
   S       -7.82477        10.25484        -5.40611
   C       -9.58285        10.04571        -5.12179
   S      -10.28372         8.58226        -4.84783
   C      -10.17129        11.30373        -5.17648
   C       -9.32696        12.36902        -5.41788
   C       -9.97464        13.66180        -5.46769
   C      -11.29053        13.62616        -5.27374
   S      -11.84439        11.92598        -5.00805
   O      -12.67204        11.49969        -6.09719
   O      -12.33291        11.76548        -3.67083
   H       -4.89659        -0.83450        -5.27589
   H       -9.17624        -3.37302        -4.67669
   H       -3.90067        -3.18370        -6.26872
   H      -10.31593         1.82250        -3.43223
   H      -10.28323         6.14090        -3.16013
   H       -7.99747         6.94897        -3.82908
   H       -5.65284         6.27078        -4.57889
   H       -5.46337         3.21113        -4.77218
   H       -3.41619         5.32935        -5.18760
   H       -0.04130         2.06977        -6.52843
   H        0.21311         4.52004        -6.28028
   H       -2.34098         6.21692        -6.29487
   H        0.62800         6.93372        -6.51137
   H        0.89288         9.56647        -6.76873
   H       -0.54135        11.70888        -6.70044
   H       -2.37938        13.32194        -6.59604
   H       -4.67668        14.45872        -6.30831
   H       -7.13806        13.90343        -5.89252
   H       -9.40657        14.56144        -5.64946
   H      -11.97887        14.44699        -5.26552
*
