# ORCA input file
# SCF done       -169.473592411519          0.000589407055
! CAM-B3LYP def2-SVP def2/J RIJCOSX Grid4 TightSCF
%maxcore 5000
%tddft
    Mode sTDDFT
    Ethresh 5.0
    maxcore 5000
end

%pal
  nprocs 6
  end
* xyz 0 1
   C      -10.69547         4.51778         0.68121
   C      -11.23288         3.73257         1.66412
   C      -11.59236         4.21210         2.94063
   N      -11.88182         4.54707         3.99971
   C      -11.51406         2.35610         1.53564
   N      -11.79656         1.24400         1.50094
   C      -10.48062         5.95596         0.74548
   C      -10.05223         6.41654        -0.52407
   C       -9.75978         7.73300        -0.78006
   C       -9.86865         8.64049         0.27658
   C      -10.29335         8.17415         1.54359
   C      -10.61009         6.84669         1.79722
   S      -10.33081         9.45872         2.71149
   C       -9.77964        10.58411         1.50028
   C       -9.58634        10.03264         0.27959
  Br       -9.48063        12.37323         1.96382
   C       -9.99108         5.28166        -1.46420
   O       -9.91452         5.35040        -2.66661
   C      -10.20202         4.06634        -0.61603
   C       -9.87751         2.80486        -0.96269
   C       -9.05362         2.50065        -2.12618
   N       -9.23800         1.32674        -2.72459
   C       -8.48143         1.07962        -3.78276
   C       -7.56076         1.98673        -4.27421
   C       -7.40917         3.18488        -3.55635
   N       -8.13760         3.39875        -2.46060
   C       -6.53822         4.27409        -3.92649
   C       -5.73834         4.29772        -5.00560
   N       -5.01405         5.39297        -5.37733
   C       -4.17919         5.45517        -6.44420
   S       -3.81337         4.02799        -7.35774
   C       -2.79451         4.97179        -8.39950
   N       -2.14938         4.30503        -9.44070
   O       -1.43121         4.95756       -10.17784
   O       -2.35661         3.10438        -9.53374
   C       -2.74893         6.29554        -8.05960
   C       -3.54000         6.60868        -6.93378
   C       -3.69671         7.91208        -6.36345
   C       -3.20798         9.05278        -6.92140
   C       -3.31190        10.36673        -6.42065
   C       -3.84526        10.83311        -5.24399
   C       -3.84875        12.19821        -4.85496
   C       -4.37792        12.44231        -3.62490
   C       -4.83337        11.28590        -2.95815
   S       -4.58265         9.87530        -3.97079
   C       -5.36446        11.18611        -1.68786
   C       -5.54919        12.21265        -0.73446
   C       -6.01964        11.77321         0.46483
   C       -6.24966        10.37537         0.53595
   S       -5.85995         9.64851        -1.01875
   C       -6.69477         9.69855         1.64083
   C       -6.97516         8.32246         1.77922
   C       -7.45191         7.72579         2.95485
   C       -7.65349         6.34706         2.71916
   C       -8.13457         5.33275         3.52377
   C       -8.21768         4.05052         2.96837
   C       -8.68457         2.84547         3.48554
   C       -8.56364         1.82987         2.49052
   C       -8.00068         2.40260         1.35837
   C       -7.79168         3.79204         1.60417
   C       -7.33221         4.79696         0.79292
   C       -7.26471         6.09148         1.34402
   C       -6.86355         7.29254         0.78904
   C       -8.98740         0.46368         2.68207
   C       -9.06037        -0.45394         1.72148
   H       -9.44120         8.05097        -1.76018
   H      -10.93077         6.54176         2.77911
   H       -9.24834        10.58025        -0.58117
   H      -10.17665         1.95729        -0.36334
   H       -8.63836         0.11830        -4.25500
   H       -6.98974         1.77262        -5.16127
   H       -6.61856         5.14351        -3.28895
   H       -5.62636         3.44417        -5.65835
   H       -5.13706         6.23925        -4.83335
   H       -2.15324         6.99803        -8.61198
   H       -4.25370         7.97827        -5.44099
   H       -2.68402         8.97371        -7.86344
   H       -2.88942        11.13852        -7.05219
   H       -3.44606        12.95797        -5.50136
   H       -4.44707        13.41810        -3.17885
   H       -5.31764        13.23932        -0.95296
   H       -6.21149        12.41057         1.30997
   H       -6.85558        10.30319         2.52603
   H       -7.63590         8.23327         3.88410
   H       -8.44233         5.51377         4.54359
   H       -9.08925         2.69469         4.47052
   H       -7.72933         1.89773         0.45086
   H       -7.05311         4.61281        -0.23526
   H       -6.52157         7.42338        -0.21958
   H       -9.28848         0.21153         3.69058
   H       -8.79282        -0.23954         0.70072
   H       -9.40275        -1.45281         1.92509
*
