# ORCA input file
# SCF done       -160.950544794227          0.000682767827
! CAM-B3LYP def2-SVP def2/J RIJCOSX Grid4 TightSCF
%maxcore 5000
%tddft
    Mode sTDDFT
    Ethresh 5.0
    maxcore 5000
end

%pal
  nprocs 6
  end
* xyz 0 1
   C       -4.31749        -2.16880        -0.65611
   C       -4.83640        -3.20804        -1.37548
   C       -4.22442        -4.47541        -1.49445
   N       -3.77750        -5.52451        -1.62171
   C       -6.05092        -3.16947        -2.09558
   N       -7.01976        -3.21857        -2.70836
   C       -3.06263        -2.17565         0.07954
   C       -2.86088        -0.90409         0.67448
   C       -1.75689        -0.61131         1.43942
   C       -0.80516        -1.61768         1.62794
   C       -1.01422        -2.88533         1.03038
   C       -2.12806        -3.18237         0.25762
   S        0.28044        -3.98470         1.39588
   C        1.07313        -2.74594         2.33270
   C        0.40537        -1.56804         2.37093
  Br        2.70451        -3.12454         3.17435
   C       -3.99700        -0.02107         0.35555
   O       -4.17267         1.11093         0.73887
   C       -4.91250        -0.84205        -0.49583
   C       -6.09166        -0.38879        -0.94577
   C       -6.54140         0.99389        -0.70729
   N       -7.53633         1.14829         0.15963
   C       -7.92206         2.39413         0.39370
   C       -7.34142         3.48023        -0.23006
   C       -6.32663         3.20920        -1.15890
   N       -5.94239         1.94986        -1.39192
   C       -5.66520         4.26280        -1.88549
   C       -4.69117         4.00525        -2.77684
   N       -4.02963         4.96837        -3.47381
   C       -3.06839         4.76203        -4.41045
   S       -2.60526         3.15794        -4.86814
   C       -1.47966         3.82944        -6.00979
   N       -0.71814         2.93539        -6.76068
   O        0.06865         3.39391        -7.57092
   O       -0.89711         1.74539        -6.54481
   C       -1.46939         5.19761        -6.02628
   C       -2.37519         5.76730        -5.10732
   C       -2.56032         7.16816        -4.88398
   C       -1.94906         8.15802        -5.58738
   C       -2.12572         9.52831        -5.32616
   C       -1.52092        10.53065        -6.04125
   C       -1.63925        11.92646        -5.82388
   C       -0.92472        12.69217        -6.69315
   C       -0.20137        11.94927        -7.65316
   S       -0.45576        10.23338        -7.40650
   C        0.60009        12.42489        -8.67024
   C        0.89475        13.77246        -8.98638
   C        1.71359        13.91675       -10.06085
   C        2.11555        12.69430       -10.66425
   S        1.40663        11.34590        -9.78950
   C        2.92716        12.58537       -11.76008
   C        3.34375        11.41464       -12.42514
   S        2.79846         9.82565       -11.94776
   C        3.67763         9.11134       -13.22873
   C        4.36331        10.01644       -13.99149
   C        4.18660        11.34123       -13.53190
   C        4.85401        12.54241       -14.12648
   C        6.01977        13.02495       -13.25826
   C        5.18939         9.59457       -15.16905
   C        6.67188         9.47370       -14.81472
   H       -1.63388         0.36567         1.87990
   H       -2.24235        -4.16270        -0.17379
   H        0.75052        -0.69974         2.90169
   H       -6.78427        -1.02119        -1.48312
   H       -8.72594         2.50682         1.10996
   H       -7.65490         4.49011        -0.02075
   H       -5.97902         5.27611        -1.67620
   H       -4.39795         2.98313        -2.96743
   H       -4.28333         5.93169        -3.28887
   H       -0.82012         5.75301        -6.67712
   H       -3.23046         7.45960        -4.08469
   H       -1.28327         7.90695        -6.40090
   H       -2.77285         9.82053        -4.50925
   H       -2.24961        12.31723        -5.02867
   H       -0.89957        13.76705        -6.67231
   H        0.49553        14.59083        -8.41452
   H        2.04553        14.86363       -10.44979
   H        3.28082        13.51956       -12.17633
   H        3.63845         8.04777       -13.36045
   H        4.12923        13.35268       -14.23812
   H        5.22903        12.29539       -15.11974
   H        5.67162        13.31261       -12.26939
   H        6.50387        13.88215       -13.72079
   H        6.75701        12.23522       -13.13650
   H        5.06531        10.30951       -15.98538
   H        4.82759         8.62513       -15.51719
   H        7.08049        10.43828       -14.52478
   H        7.23300         9.10610       -15.67087
   H        6.80627         8.77964       -13.98784
*
