# ORCA input file
# SCF done       -199.896158238385          0.000339452951
! CAM-B3LYP def2-SVP def2/J RIJCOSX Grid4 TightSCF
%maxcore 5000
%tddft
    Mode sTDDFT
    Ethresh 5.0
    maxcore 5000
end

%pal
  nprocs 6
  end
* xyz 0 1
   C       -3.96390         3.10667         2.17443
   C       -3.12888         2.14998         1.65373
   C       -2.07745         1.54122         2.36998
   N       -1.20701         1.00732         2.89515
   C       -3.17815         1.63781         0.34079
   N       -3.14221         1.16770        -0.70674
   C       -3.88656         3.64014         3.53112
   C       -4.87952         4.63765         3.68651
   C       -5.06014         5.32777         4.86028
   C       -4.22250         5.01686         5.93652
   C       -3.23460         4.01705         5.77331
   C       -3.05031         3.32122         4.58499
   S       -2.31230         3.78604         7.22795
   C       -3.25369         5.01888         8.02440
   C       -4.20933         5.57636         7.24361
  Br       -2.88682         5.45164         9.81217
   C       -5.63911         4.77396         2.42701
   O       -6.55266         5.54726         2.22276
   C       -5.05547         3.77780         1.49828
   C       -5.51105         3.52678         0.23012
   C       -6.58650         4.19168        -0.38713
   C       -7.01827         3.85345        -1.63648
   C       -8.10233         4.47554        -2.28409
   O       -8.78224         5.50001        -1.70830
   C       -9.77737         5.88124        -2.54422
   C       -9.74267         5.08595        -3.69039
   C       -8.67147         4.18946        -3.52970
   O       -8.26231         3.23899        -4.38460
   O      -10.54154         5.11011        -4.78753
   C      -10.64479         6.94387        -2.19469
   C      -10.50910         7.67561        -1.05625
   C      -11.36260         8.74449        -0.70672
   C      -11.17072         9.51962         0.39318
   C      -11.99033        10.60823         0.76019
   S      -13.44513        11.05552        -0.09243
   C      -13.75286        12.41886         0.95843
   C      -12.75577        12.50019         1.92037
   C      -11.78611        11.48840         1.81193
   S      -10.49486        11.48256         2.98044
   C      -11.05651        12.90693         3.88526
   O      -10.49296        13.34110         4.83753
   S      -12.54801        13.63402         3.22629
   C      -14.89150        13.22322         0.73378
   C      -15.17693        14.37847         1.38692
   C      -16.32886        15.15984         1.15210
   S      -17.63215        14.68592         0.09843
   C      -18.53754        16.14936         0.41157
   C      -17.83112        16.95761         1.29267
   C      -16.61026        16.39914         1.70782
   S      -15.63875        17.31723         2.82265
   C      -16.75628        18.69741         2.94438
   O      -16.54926        19.64959         3.62415
   S      -18.22739        18.51837         1.94690
   C      -19.77646        16.33924        -0.23479
   C      -20.58237        17.42676        -0.09188
   C      -21.83893        17.60666        -0.71277
   C      -22.40686        17.01008        -1.80229
   C      -21.91201        16.19052        -2.88551
   C      -20.64890        16.19748        -3.42263
   C      -20.26707        15.43615        -4.54573
   N      -19.89526        14.82346        -5.44259
   C      -19.59711        17.01160        -2.96079
   N      -18.70943        17.66038        -2.63062
   C      -23.06527        15.52491        -3.48854
   C      -24.24980        16.09407        -2.95820
   C      -23.88778        17.10717        -1.94897
   O      -24.62752        17.83667        -1.33044
   C      -25.50332        15.69722        -3.35537
   C      -25.59248        14.67988        -4.31138
   C      -24.40400        14.10632        -4.82344
   C      -23.13555        14.51546        -4.42920
   S      -24.74552        12.85542        -5.97945
   C      -26.45629        13.11848        -5.76580
   C      -26.75827        14.09201        -4.87432
  Br      -27.67984        12.08021        -6.73606
   H       -5.82561         6.08297         4.94653
   H       -2.28409         2.56784         4.51349
   H       -4.87839         6.34973         7.57409
   H       -5.02828         2.75186        -0.35123
   H       -7.08719         4.98161         0.15188
   H       -6.53875         3.06067        -2.19411
   H       -8.83107         3.25706        -5.16617
   H      -11.20602         5.80177        -4.69997
   H      -11.44247         7.17264        -2.88961
   H       -9.69588         7.43721        -0.38551
   H      -12.20009         8.96234        -1.35855
   H      -10.32823         9.32948         1.04554
   H      -15.56881        12.87788        -0.03674
   H      -14.49701        14.77224         2.12997
   H      -20.09841        15.51258        -0.85421
   H      -20.29094        18.19809         0.60726
   H      -22.50987        18.29588        -0.20641
   H      -26.38749        16.15521        -2.94083
   H      -22.25947        14.04405        -4.84279
   H      -27.76103        14.38427        -4.62144
*
