# ORCA input file
# SCF done       -127.286770803860          0.000405771627
! CAM-B3LYP def2-SVP def2/J RIJCOSX Grid4 TightSCF
%maxcore 5000
%tddft
    Mode sTDDFT
    Ethresh 5.0
    maxcore 5000
end

%pal
  nprocs 6
  end
* xyz 0 1
   C       -1.20126        -1.99005        -2.10087
   N        0.05211        -1.78543        -2.50536
   C        0.96449        -1.68947        -1.56857
   C        0.58757        -1.81814        -0.21542
   N       -0.70807        -1.95193         0.09592
   N       -1.59376        -2.03914        -0.84557
   N        1.40583        -1.76818         0.87739
   C        2.76227        -1.78754         0.98767
   S        3.81270        -2.18796        -0.33127
   C        5.17366        -2.14869         0.74649
   N        6.43550        -2.40317         0.20144
   O        7.39391        -2.37406         0.95055
   O        6.47601        -2.63900        -0.99485
   C        4.83018        -1.85239         2.03574
   C        3.44885        -1.61978         2.20005
   C        2.88552        -1.26546         3.47228
   C        1.72332        -0.60436         3.70680
   C        1.24990        -0.31007         5.00289
   C        0.09515         0.37889         5.25835
   C       -0.43389         0.71447         6.53205
   C       -1.59664         1.41677         6.48828
   C       -2.06241         1.67896         5.17748
   S       -0.96767         0.99267         3.99687
   C       -3.19252         2.37694         4.80821
   C       -4.13079         3.00999         5.65864
   C       -5.13458         3.65127         5.00518
   C       -5.05517         3.55383         3.58783
   S       -3.64222         2.61033         3.13063
   C       -5.88350         4.07008         2.63485
   N       -6.97178         4.83311         2.92748
   C       -7.82184         5.38860         2.03998
   S       -7.57284         5.21504         0.32959
   C       -8.93051         6.26445         0.03946
   N       -9.26228         6.52285        -1.28946
   O      -10.20977         7.25689        -1.51016
   O       -8.56577         5.98709        -2.13893
   C       -9.51897         6.71993         1.18783
   C       -8.91724         6.21491         2.35514
   C       -9.39926         6.55635         3.66378
   C       -9.22079         5.89006         4.81966
   C       -9.73825         6.38114         6.07374
   N      -10.44577         7.52509         6.09527
   C      -10.89287         7.90044         7.27110
   C      -10.63171         7.12869         8.40831
   N       -9.89884         6.03291         8.31571
   N       -9.44874         5.65951         7.15858
   H       -1.95858        -2.09846        -2.86220
   H        1.97552        -1.48593        -1.89073
   H        0.89144        -1.81903         1.75376
   H        5.55440        -1.78433         2.82725
   H        3.50210        -1.52557         4.32282
   H        1.12327        -0.22138         2.89151
   H        1.82940        -0.65000         5.85051
   H        0.06934         0.42445         7.43738
   H       -2.13310         1.75239         7.35738
   H       -4.03643         2.97780         6.72893
   H       -5.92520         4.17977         5.50915
   H       -5.69885         3.88269         1.58817
   H       -7.12836         5.06836         3.90105
   H      -10.36901         7.37801         1.18000
   H      -10.00121         7.45488         3.70935
   H       -8.73195         4.93020         4.89956
   H      -11.45792         8.82291         7.30920
   H      -10.99159         7.38709         9.39191
*
