# ORCA input file
# SCF done       -156.798223888542          0.000525599875
! CAM-B3LYP def2-SVP def2/J RIJCOSX Grid4 TightSCF
%maxcore 5000
%tddft
    Mode sTDDFT
    Ethresh 5.0
    maxcore 5000
end

%pal
  nprocs 6
  end
* xyz 0 1
   C       -3.78443        -6.88269        -1.49611
   C       -2.62410        -6.37192        -1.11142
   C       -2.20786        -4.93085        -1.23589
   C       -0.97672        -4.75904        -0.41291
   C       -0.37328        -5.89667        -0.03796
   S       -1.32877        -7.34348        -0.40908
   C        0.95728        -6.06826         0.46588
   C        1.80314        -5.16132         1.05937
   C        3.10278        -5.64816         1.22614
   C        3.28134        -6.92810         0.74319
   S        1.77960        -7.55663         0.12198
   C        4.48968        -7.66181         0.60564
   C        4.54470        -8.83425        -0.06916
   C        5.69367        -9.57665        -0.41777
   C        5.68848       -10.74069        -1.16950
   C        6.95054       -11.24202        -1.44080
   C        7.97615       -10.47543        -0.90298
   S        7.32731        -9.10546        -0.03479
   C        9.35568       -10.73362        -1.02011
   C        9.94149       -11.80733        -1.68544
   C       11.31765       -11.81764        -1.63880
   C       11.86467       -10.74323        -0.92699
   S       10.58099        -9.70548        -0.31941
   C       13.21224       -10.52610        -0.71379
   N       13.72346        -9.49878        -0.01414
   C       15.02568        -9.28926         0.24575
   S       16.23439       -10.41077        -0.33574
   C       17.45814        -9.44971         0.44087
   N       18.78546        -9.87447         0.32108
   O       19.64793        -9.20576         0.86307
   O       18.98157       -10.89264        -0.32220
   C       16.97702        -8.35500         1.09447
   C       15.56958        -8.21879         1.00367
   C       14.80689        -7.17698         1.56033
   C       15.31647        -6.19150         2.38420
   C       14.62986        -5.12113         2.93034
   C       13.31134        -4.69592         2.74461
   C       12.75673        -3.57997         3.37638
   C       11.45115        -3.31191         3.01982
   C       10.93005        -4.20612         2.09156
   S       12.11813        -5.41121         1.67985
   C        9.64145        -4.17498         1.52022
   C        8.64486        -3.24855         1.79184
   C        7.48841        -3.45345         1.05740
   C        7.55285        -4.53834         0.19687
   S        9.10280        -5.32557         0.32270
   C        6.50642        -4.95776        -0.65275
   C        6.49775        -6.01312        -1.50306
   C        5.34572        -6.36841        -2.24997
   C        5.12003        -7.48633        -3.02703
   C        3.81659        -7.57467        -3.52158
   C        3.01724        -6.51583        -3.14873
   S        3.90816        -5.38391        -2.17965
   C        1.62413        -6.30087        -3.35646
   C        0.66187        -7.16120        -3.82542
   C       -0.64130        -6.64529        -3.71837
   C       -0.69094        -5.39188        -3.18107
   S        0.90277        -4.80467        -2.83531
   C       -1.87418        -4.61063        -2.73201
   H       -4.55331        -6.25947        -1.91997
   H       -4.00269        -7.93070        -1.39857
   H       -3.02038        -4.26666        -0.92613
   H       -0.53380        -3.78731        -0.28328
   H        1.48791        -4.17785         1.35826
   H        3.90525        -5.07801         1.65984
   H        5.38964        -7.20993         1.00047
   H        3.61611        -9.25183        -0.44175
   H        4.77560       -11.19673        -1.50945
   H        7.12686       -12.13305        -2.01461
   H        9.35937       -12.55873        -2.18629
   H       11.93468       -12.57053        -2.09403
   H       13.92099       -11.23093        -1.12249
   H       13.06344        -8.82286         0.36184
   H       17.62980        -7.67333         1.60760
   H       13.75095        -7.15801         1.33512
   H       16.36065        -6.25711         2.65535
   H       15.19373        -4.48512         3.60173
   H       13.31904        -2.98834         4.07696
   H       10.88483        -2.48681         3.41145
   H        8.76677        -2.45170         2.50236
   H        6.61280        -2.83281         1.13198
   H        5.60764        -4.35467        -0.58461
   H        7.37001        -6.64454        -1.60282
   H        5.87813        -8.22776        -3.20934
   H        3.46215        -8.38781        -4.12919
   H        0.88353        -8.14567        -4.19483
   H       -1.52133        -7.19576        -4.00149
   H       -2.74452        -4.86208        -3.34029
   H       -1.67322        -3.54143        -2.81891
*
