# ORCA input file
# SCF done       -149.914909241384          0.000691711228
! CAM-B3LYP def2-SVP def2/J RIJCOSX Grid4 TightSCF
%maxcore 5000
%tddft
    Mode sTDDFT
    Ethresh 5.0
    maxcore 5000
end

%pal
  nprocs 6
  end
* xyz 0 1
   C        0.33172         5.95590        -5.15621
   C       -0.60119         6.93170        -5.48139
   C       -1.54037         7.37216        -4.55898
   C       -1.56370         6.85417        -3.27164
   C       -0.63340         5.88808        -2.93938
   C        0.31170         5.42720        -3.87607
   C        1.11201         4.37525        -3.25463
   C        1.77703         3.38108        -3.91947
   C        1.95952         3.35569        -5.31700
   N        2.14823         3.30065        -6.44759
   C        2.26244         2.22166        -3.27746
   N        2.61496         1.24375        -2.79097
   C        0.81129         4.39296        -1.83719
   C       -0.43105         5.19819        -1.64952
   O       -1.08490         5.29250        -0.63779
   C        1.48458         3.93196        -0.75239
   C        2.83913         3.52958        -0.63774
   C        3.37055         2.79453         0.40473
   C        4.74495         2.61464         0.27140
   C        5.29309         3.24459        -0.85531
   S        4.08038         4.05369        -1.77155
   C        6.67173         3.08721        -0.97792
   C        7.18722         2.33227         0.05662
   S        5.96145         1.80874         1.19323
   C        8.55268         1.98910         0.24400
   C        9.13816         1.29198         1.28192
   F        8.44434         0.80347         2.31412
   C       10.52859         1.14976         1.15752
   F       11.27999         0.51006         2.05847
   C       11.04924         1.72744         0.01695
   S        9.76963         2.46077        -0.90662
   C       12.39827         1.77978        -0.42432
   C       12.84241         2.31438        -1.61699
   C       14.22706         2.21889        -1.73328
   C       14.85214         1.61278        -0.63400
   S       13.69941         1.14880         0.56453
   C       16.23546         1.51036        -0.75905
   C       16.69363         2.07000        -1.93665
   S       15.37461         2.67860        -2.93128
   C       18.04083         2.06808        -2.37840
   C       18.62594         2.80106        -3.35967
   C       18.19833         3.98172        -4.08373
   C       17.46714         5.01717        -3.56496
   C       17.15927         6.19300        -4.27768
   N       16.87351         7.16067        -4.82448
   C       17.03250         5.05135        -2.22327
   N       16.71609         5.12995        -1.12272
   C       18.93764         4.00705        -5.33865
   C       19.97561         3.04042        -5.27124
   C       19.88782         2.31541        -3.99043
   O       20.63270         1.46772        -3.55678
   C       20.87545         2.85871        -6.29413
   C       20.73646         3.65369        -7.43591
   C       19.68794         4.60402        -7.49731
   C       18.78386         4.79842        -6.45948
   S       19.70271         5.45933        -9.00641
   C       21.08557         4.56186        -9.53001
   C       21.52130         3.66017        -8.62359
   H        1.05710         5.63246        -5.88558
   H       -0.59426         7.35406        -6.47496
   H       -2.25742         8.12614        -4.84658
   H       -2.28401         7.18640        -2.54008
   H        0.92842         3.95288         0.18047
   H        2.77333         2.38894         1.20038
   H        7.27567         3.49277        -1.76861
   H       12.18595         2.74823        -2.34855
   H       16.88775         1.08020        -0.02165
   H       18.67504         1.31178        -1.92504
   H       21.66240         2.12482        -6.21555
   H       17.99612         5.52865        -6.54791
   H       21.49249         4.76823       -10.50082
   H       22.36671         3.01390        -8.77544
*
