# ORCA input file
# SCF done       -199.806657360660          0.000761114412
! CAM-B3LYP def2-SVP def2/J RIJCOSX Grid4 TightSCF
%maxcore 5000
%tddft
    Mode sTDDFT
    Ethresh 5.0
    maxcore 5000
end

%pal
  nprocs 6
  end
* xyz 0 1
   C        4.47530        -1.96203         0.60413
   C        4.41300        -3.38001         1.08086
   O        5.33734        -4.00884         1.54786
   C        3.01470        -3.79784         0.89611
   C        2.31433        -2.78165         0.24708
   C        3.22848        -1.68772        -0.07420
   C        2.98753        -0.70707        -0.99804
   C        3.94584         0.21662        -1.45709
   N        4.66698         1.00090        -1.88558
   C        1.75514        -0.51059        -1.65552
   N        0.77858        -0.26964        -2.20926
   C        0.94453        -2.92010        -0.01456
   C        0.31235        -4.07419         0.36864
   C        0.99808        -5.12922         1.00942
   C        2.38924        -4.99742         1.28866
   C        3.07090        -6.05080         1.93137
   C        2.40112        -7.19109         2.27969
   C        1.03051        -7.32674         2.00595
   C        0.34331        -6.31944         1.38632
   C        5.57620        -1.24497         0.93758
   C        5.90260         0.15239         0.90725
   C        4.94001         1.18842         0.98712
   O        3.66315         0.78622         1.16086
   C        2.65279         1.68948         1.56558
   C        5.36318         2.52367         0.90934
   O        4.42661         3.53347         0.78651
   C        4.39923         4.12121        -0.50227
   C        6.72889         2.82824         0.89215
   C        7.67126         1.80128         0.85621
   C        7.26028         0.49373         0.85494
   C        7.16138         4.22343         0.96791
   C        8.13415         4.77222         0.12338
   C        8.52607         6.15446         0.21937
   N        9.52301         6.62501        -0.57218
   C       10.03896         5.83976        -1.44936
   C        9.59074         4.49103        -1.60403
   N        8.69280         3.98593        -0.83333
   F       10.11894         3.71150        -2.54391
   F       11.03182         6.30825        -2.20302
   C        7.93158         7.03256         1.13398
   C        6.99667         6.47617         2.01693
   C        6.61899         5.08206         1.93609
   N        5.73196         4.75776         2.88492
   S        5.39155         6.05960         3.74436
   N        6.34374         7.10787         3.00096
   C        8.28718         8.44975         1.17385
   C        8.31344         9.20002        -0.00965
   O        7.85660         8.63776        -1.18781
   C        6.44781         8.50551        -1.22923
   C        8.74248        10.53405         0.02273
   O        8.88187        11.36182        -1.03158
   C        8.83983        10.87475        -2.35864
   C        9.00462        11.13333         1.27385
   C        8.91781        10.37901         2.44334
   C        8.59358         9.04547         2.39473
   C        9.37023        12.53004         1.32429
   C        8.97521        13.41417         2.26398
   C        9.70341        14.69895         2.47660
   O       10.49016        15.20979         1.71224
   C        9.29569        15.14844         3.82115
   C        8.29254        14.31007         4.31116
   C        7.96108        13.31269         3.30061
   C        6.79903        12.59411         3.22970
   C        6.39824        11.83216         2.11092
   N        5.96492        11.25227         1.21997
   C        5.80562        12.59802         4.23132
   N        4.97506        12.55061         5.02231
   C        7.75580        14.51156         5.59031
   C        8.23317        15.54742         6.34910
   C        9.24131        16.41873         5.88041
   C        9.79583        16.22350         4.58186
   C       10.80523        17.09291         4.12061
   C       11.24705        18.11522         4.91443
   C       10.70408        18.31219         6.19424
   C        9.72349        17.48403         6.66737
   H        0.39117        -2.13175        -0.49804
   H       -0.74460        -4.19342         0.17801
   H        4.12331        -5.93500         2.13678
   H        2.92410        -7.99873         2.76979
   H        0.52174        -8.23611         2.28996
   H       -0.71132        -6.42147         1.17454
   H        6.36835        -1.86716         1.35009
   H        1.84711         1.06080         1.94767
   H        2.28313         2.27954         0.72437
   H        3.00673         2.36034         2.34895
   H        4.27910         3.35660        -1.27662
   H        5.31213         4.68987        -0.70754
   H        3.54347         4.79457        -0.50592
   H        8.71939         2.04950         0.83542
   H        7.98922        -0.30020         0.79941
   H        6.20599         8.16968        -2.23655
   H        5.95670         9.46166        -1.02330
   H        6.09089         7.76685        -0.50301
   H        7.81488        10.68034        -2.68077
   H        9.43504         9.96776        -2.47259
   H        9.26191        11.67525        -2.96668
   H        9.15349        10.84595         3.38823
   H        8.56859         8.45085         3.29316
   H       10.06211        12.88708         0.57028
   H        6.99192        13.85650         5.97663
   H        7.83525        15.71289         7.33994
   H       11.21536        16.93157         3.13625
   H       12.02055        18.78041         4.56088
   H       11.06876        19.12513         6.80454
   H        9.30375        17.63372         7.65166
*
