# ORCA input file
# SCF done       -135.734549367106          0.000923431458
! CAM-B3LYP def2-SVP def2/J RIJCOSX Grid4 TightSCF
%maxcore 5000
%tddft
    Mode sTDDFT
    Ethresh 5.0
    maxcore 5000
end

%pal
  nprocs 6
  end
* xyz 0 1
   C       -7.71165        -2.77204         2.73628
   C       -7.02526        -1.60591         2.59066
   C       -5.82473        -1.76817         1.87957
   C       -5.60479        -3.06701         1.48584
   S       -6.90535        -4.09823         2.00721
   C       -4.50065        -3.58772         0.74636
   C       -3.43771        -2.89424         0.21823
   C       -2.52721        -3.71727        -0.46110
  Cl       -1.19470        -3.06222        -1.31736
   C       -2.86414        -5.05654        -0.45719
   S       -4.36895        -5.28305         0.39179
   C       -2.23075        -6.18920        -1.04962
   C       -0.89041        -6.51678        -1.16020
  Cl        0.38970        -5.61023        -0.46593
   C       -0.65960        -7.73135        -1.80900
   C       -1.82104        -8.36841        -2.19886
   S       -3.22079        -7.44467        -1.74551
   C       -1.93879        -9.61664        -2.87128
   C       -3.20145       -10.16941        -3.17642
   C       -3.37487       -11.43833        -3.83034
   N       -4.62775       -11.88142        -4.06602
   C       -5.63992       -11.16353        -3.70381
   C       -5.47085        -9.90858        -3.06532
   N       -4.28651        -9.45071        -2.82350
   F       -6.51578        -9.16969        -2.70546
   F       -6.85700       -11.64381        -3.95739
   C       -2.26528       -12.22027        -4.22762
   C       -1.00103       -11.65757        -3.94043
   C       -0.82691       -10.38925        -3.27458
   N        0.46485       -10.09409        -3.11863
   S        1.36006       -11.27365        -3.73807
   N        0.16736       -12.22452        -4.23745
   C       -2.35224       -13.48802        -4.86674
   C       -3.47430       -14.22381        -5.19881
   C       -3.16850       -15.43374        -5.81225
  Cl       -4.37872       -16.53816        -6.32054
   C       -1.80681       -15.66814        -5.97716
   S       -0.89905       -14.32667        -5.33466
   C       -1.18089       -16.79618        -6.55758
   C        0.17469       -17.03237        -6.74158
  Cl        1.38921       -15.92077        -6.26875
   C        0.47465       -18.25636        -7.34546
   C       -0.64823       -18.99674        -7.63795
   S       -2.09116       -18.15494        -7.16320
   C       -0.71174       -20.28593        -8.24200
   C        0.32408       -21.04599        -8.73379
   C       -0.09935       -22.27833        -9.25681
   C       -1.44527       -22.45630        -9.16073
   S       -2.22995       -21.11533        -8.43472
   H       -8.64888        -2.93308         3.23057
   H       -7.36639        -0.66276         2.97793
   H       -5.14586        -0.96356         1.66585
   H       -3.31382        -1.83063         0.29635
   H        0.31672        -8.14469        -1.97970
   H       -4.47382       -13.89003        -4.99913
   H        1.47873       -18.57674        -7.54849
   H        1.34883       -20.72315        -8.72339
   H        0.56715       -23.00507        -9.68545
   H       -2.02766       -23.29871        -9.47617
*
