# ORCA input file
# SCF done       -172.583142077212          0.000516451294
! CAM-B3LYP def2-SVP def2/J RIJCOSX Grid4 TightSCF
%maxcore 5000
%tddft
    Mode sTDDFT
    Ethresh 5.0
    maxcore 5000
end

%pal
  nprocs 6
  end
* xyz 0 1
   C      -10.13675        -3.56389         8.46247
   C       -8.78203        -3.58934         8.47554
   C       -7.68049        -3.20129         9.37703
   O       -7.70528        -2.72430        10.48305
   N       -6.52435        -3.49611         8.66315
   C       -5.19895        -3.25243         9.17498
   C       -6.75566        -4.04142         7.40077
   O       -5.88699        -4.36850         6.62625
   C       -8.20873        -4.09717         7.27696
   C       -9.13097        -4.45647         6.32284
   S      -10.74628        -4.16562         6.95975
   C       -8.92783        -4.93672         5.00906
   C       -9.89532        -5.10855         4.02542
   C       -9.34602        -5.50346         2.81897
   C       -7.95623        -5.65957         2.89020
   S       -7.31200        -5.30231         4.43702
   C       -7.46324        -5.95975         1.60231
   C       -8.53080        -5.97043         0.69639
   C       -9.84258        -5.74091         1.41098
   C      -10.73537        -6.98354         1.33660
   C      -10.57354        -4.51565         0.85811
   C       -8.11832        -6.09951        -0.61751
   C       -6.73571        -6.20115        -0.72878
   S       -5.94722        -6.19625         0.84232
   C       -5.92262        -6.12021        -1.89198
   C       -6.37194        -5.62007        -3.13714
   C       -5.44041        -5.18174        -4.14054
   N       -5.90075        -4.61958        -5.27566
   C       -7.17537        -4.49678        -5.45858
   C       -8.09281        -4.94111        -4.47565
   N       -7.69357        -5.47166        -3.36584
   F       -9.41013        -4.83476        -4.66451
   F       -7.59477        -3.95447        -6.60003
   C       -4.03785        -5.27007        -3.98375
   C       -3.60178        -5.99000        -2.84668
   C       -4.53340        -6.37432        -1.81435
   N       -3.91970        -6.95643        -0.78620
   S       -2.34464        -7.03249        -1.08330
   N       -2.35042        -6.31470        -2.52286
   C       -3.14653        -4.53297        -4.80554
   C       -1.75570        -4.59777        -4.80918
   C       -1.18675        -3.56255        -5.52663
   C       -2.14136        -2.68779        -6.06233
   S       -3.75083        -3.19634        -5.76524
   C       -1.47827        -1.57328        -6.61944
   C       -0.09636        -1.74278        -6.46642
   C        0.21329        -3.06637        -5.80523
   C        1.01169        -2.87941        -4.51381
   C        0.94839        -4.00752        -6.76525
   C        0.62151        -0.63788        -6.88603
   C       -0.20794         0.38489        -7.33296
   S       -1.90546        -0.04468        -7.26456
   C        0.18949         1.67980        -7.73729
   C       -0.57817         2.78744        -8.00883
   C       -1.99544         3.13400        -8.02394
   O       -2.97308         2.45154        -7.82411
   N       -2.02826         4.49307        -8.33476
   C       -3.25659         5.24123        -8.43400
   C       -0.77621         5.06095        -8.54042
   O       -0.58183         6.21383        -8.82976
   C        0.17452         3.95278        -8.32278
   C        1.51479         3.75479        -8.30840
   S        1.88744         2.11592        -7.89854
   H      -10.81972        -3.23375         9.21895
   H       -5.30065        -2.75863        10.13970
   H       -4.64607        -2.61637         8.48271
   H       -4.66102        -4.19420         9.29288
   H      -10.93784        -4.91963         4.21077
   H      -10.20975        -7.85033         1.73043
   H      -11.01090        -7.18122         0.30394
   H      -11.63976        -6.82849         1.91964
   H       -9.93631        -3.63652         0.91892
   H      -11.47999        -4.33064         1.42893
   H      -10.84022        -4.68063        -0.18247
   H       -8.75717        -6.09824        -1.47942
   H       -1.22559        -5.36294        -4.27375
   H        0.48589        -2.20824        -3.83885
   H        1.98900        -2.45792        -4.73501
   H        1.14529        -3.83740        -4.01795
   H        0.37594        -4.13410        -7.68107
   H        1.08409        -4.98095        -6.30087
   H        1.92320        -3.59707        -7.01660
   H        1.69169        -0.53381        -6.85691
   H       -4.07554         4.53138        -8.53777
   H       -3.20870         5.90043        -9.29998
   H       -3.40959         5.84510        -7.53720
   H        2.30876         4.44765        -8.50171
*
