# ORCA input file
# SCF done       -207.096698381211          0.000938079633
! CAM-B3LYP def2-SVP def2/J RIJCOSX Grid4 TightSCF
%maxcore 5000
%tddft
    Mode sTDDFT
    Ethresh 5.0
    maxcore 5000
end

%pal
  nprocs 6
  end
* xyz 0 1
   C       -7.59997        -1.18378        -7.14519
   C       -6.75615        -1.06158        -8.21355
   F       -7.06317        -0.23712        -9.22300
   C       -5.55624        -1.79892        -8.26799
   F       -4.74816        -1.65944        -9.32715
   C       -5.21710        -2.64934        -7.25301
   C       -6.06615        -2.79746        -6.13930
   C       -7.27903        -2.05156        -6.08221
   C       -8.14801        -2.18393        -4.97441
   C       -7.81612        -3.03873        -3.95684
   C       -6.60540        -3.78382        -4.02650
   C       -5.74382        -3.67392        -5.07935
   C       -6.49746        -4.63860        -2.83242
   O       -5.57166        -5.38152        -2.55629
   C       -7.72384        -4.41786        -2.05839
   C       -8.50475        -3.38560        -2.71506
   C       -9.65735        -2.80031        -2.26082
   C      -10.30271        -3.09511        -1.04116
   N      -10.88283        -3.27283        -0.06588
   C      -10.35257        -1.78663        -2.95432
   N      -10.96131        -0.96004        -3.46790
   C       -8.09702        -5.13103        -0.94868
   C       -7.42813        -6.16714        -0.27778
   C       -8.00817        -6.85182         0.78881
   C       -7.20533        -7.85323         1.30398
  Cl       -7.68585        -8.86561         2.60437
   C       -5.96853        -7.96018         0.66237
   S       -5.83362        -6.79139        -0.61384
   C       -4.94149        -8.89427         0.93919
   C       -3.68490        -8.99026         0.35422
  Cl       -3.13073        -7.91253        -0.85322
   C       -2.90978       -10.05063         0.83347
   C       -3.56029       -10.79883         1.78685
   S       -5.14277       -10.16363         2.11540
   C       -3.07036       -11.96807         2.44161
   C       -3.75932       -12.87523         3.21240
   C       -5.24068       -12.80019         3.43674
   O       -6.03187       -13.34891         2.73100
   O       -5.62363       -12.06223         4.49297
   C       -2.95029       -13.96522         3.65001
   C       -1.65348       -13.83581         3.21441
   S       -1.39816       -12.43590         2.27257
   C       -3.42746       -15.07848         4.43069
   C       -2.84154       -16.31352         4.56068
   C       -3.58191       -17.18123         5.37167
  Cl       -3.09497       -18.79319         5.68467
   C       -4.74531       -16.62773         5.88360
   S       -4.90249       -14.98566         5.33680
   C       -5.73184       -17.24174         6.69421
   C       -6.92082       -16.69610         7.16571
  Cl       -7.39848       -15.08298         6.84131
   C       -7.68827       -17.57705         7.92657
   C       -7.12959       -18.83497         8.03003
   S       -5.58915       -18.88894         7.21455
   C       -7.65190       -19.92499         8.76713
   C       -7.33191       -21.24437         8.69066
   C       -7.62888       -22.13951         9.84382
   O       -8.35970       -21.90271        10.77652
   C       -6.78730       -23.33474         9.62701
   C       -6.58980       -24.40515        10.45094
   C       -5.71031       -25.43298        10.04292
   C       -5.04497       -25.32784         8.78662
   C       -4.16408       -26.35403         8.38979
   C       -3.95638       -27.43501         9.19956
   C       -4.61645       -27.53913        10.44063
   C       -5.47517       -26.55989        10.85468
   F       -4.39294       -28.60985        11.21419
   F       -3.11966       -28.40960         8.82020
   C       -5.27451       -24.21122         7.95082
   C       -6.13870       -23.23270         8.36270
   C       -6.60168       -22.01466         7.70430
   C       -6.59600       -21.79708         6.35255
   C       -7.33588       -20.76646         5.73472
   N       -7.97170       -19.97539         5.19936
   C       -5.93016       -22.62762         5.42905
   N       -5.38794       -23.26497         4.64352
   H       -8.51430        -0.61176        -7.11933
   H       -4.29575        -3.20754        -7.30993
   H       -9.05868        -1.60755        -4.96467
   H       -4.83209        -4.25106        -5.10500
   H       -9.06554        -4.90367        -0.51982
   H       -8.98946        -6.62441         1.16442
   H       -1.91818       -10.26597         0.47989
   H       -4.88184       -11.67460         4.97628
   H       -0.83342       -14.49590         3.41156
   H       -1.92987       -16.60527         4.07452
   H       -8.63788       -17.31449         8.35517
   H       -8.34842       -19.66262         9.55805
   H       -7.09830       -24.46789        11.40092
   H       -3.65420       -26.29204         7.44112
   H       -5.97263       -26.65432        11.80720
   H       -4.75443       -24.15112         7.00797
*
