# ORCA input file
# SCF done       -243.601370402670          0.000798989651
! CAM-B3LYP def2-SVP def2/J RIJCOSX Grid4 TightSCF
%maxcore 5000
%tddft
    Mode sTDDFT
    Ethresh 5.0
    maxcore 5000
end

%pal
  nprocs 6
  end
* xyz 0 1
   C       -9.80022         0.11873        -5.05614
   C       -9.68483         1.42172        -4.66055
   F      -10.08322         2.40993        -5.47237
   C       -9.14626         1.74338        -3.39849
   F       -9.04375         3.02983        -3.03765
   C       -8.73049         0.75688        -2.54894
   C       -8.83528        -0.59538        -2.92820
   C       -9.38021        -0.92241        -4.20387
   C       -9.49406        -2.27269        -4.60694
   C       -9.07168        -3.26432        -3.76088
   C       -8.52317        -2.92791        -2.49358
   C       -8.40597        -1.63466        -2.07347
   C       -8.12439        -4.15868        -1.78109
   O       -7.68007        -4.20878        -0.65503
   C       -8.36219        -5.26520        -2.74057
   C       -9.05217        -4.71685        -3.89739
   C       -9.65207        -5.42499        -4.90531
   C       -9.72405        -6.83231        -4.98697
   N       -9.84601        -7.96730        -5.11217
   C      -10.32904        -4.82713        -5.98940
   N      -10.88549        -4.39885        -6.89744
   C       -7.87429        -6.54132        -2.68709
   C       -7.18649        -7.21546        -1.65458
   C       -7.03514        -6.95693        -0.31341
   C       -6.25025        -7.90167         0.36725
   C       -5.77079        -8.93983        -0.48378
   S       -6.37030        -8.70690        -2.10384
   C       -4.95204        -9.94965        -0.00679
   S       -4.32951       -11.33929        -0.88604
   C       -4.27552       -10.86044        -2.63546
   C       -4.59809        -9.89107         1.36289
   C       -5.10355        -8.87516         2.21884
   C       -5.94591        -7.88456         1.74903
   S       -6.62868        -6.55958         2.67961
   C       -6.83385        -7.21551         4.36065
   S       -4.45060        -9.04991         3.83129
   C       -3.49364       -10.42674         3.34583
   C       -3.70057       -10.74631         2.02555
   C       -2.60711       -11.02460         4.28939
   C       -1.70567       -12.07312         3.99555
   C       -0.78548       -12.56460         4.98459
   N        0.07849       -13.54679         4.65711
   C        0.06794       -14.04232         3.46221
   C       -0.84597       -13.56410         2.49144
   N       -1.68727       -12.61924         2.76146
   F       -0.86577       -14.07326         1.26090
   F        0.94179       -15.00685         3.18169
   C       -0.71842       -12.06114         6.30124
   C       -1.64428       -11.04163         6.61044
   C       -2.55948       -10.53970         5.61475
   N       -3.33312        -9.56857         6.10032
   S       -2.95887        -9.31405         7.64229
   N       -1.79815       -10.41236         7.77639
   C        0.24874       -12.53872         7.23181
   C        0.42480       -12.12069         8.52866
   C        1.48876       -12.75521         9.19109
   C        2.16848       -13.68369         8.35590
   S        1.40861       -13.75430         6.77847
   C        3.27066       -14.39134         8.80743
   S        4.21318       -15.57346         7.91264
   C        4.03903       -15.14805         6.15812
   C        3.66082       -14.18921        10.15199
   C        2.94681       -13.29176        10.99181
   C        1.88726       -12.53868        10.52745
   S        0.98034       -11.36438        11.47814
   C        2.26601       -10.49972        12.43365
   S        3.59978       -13.30199        12.60521
   C        4.87679       -14.40613        12.13318
   C        4.73222       -14.80252        10.82612
   C        5.86655       -14.85618        13.03972
   C        6.25435       -14.29818        14.21923
   C        6.94818       -15.13117        15.23895
   O        7.45940       -16.21303        15.06916
   C        6.81347       -14.37729        16.50386
   C        7.16632       -14.75298        17.76756
   C        6.91117       -13.87193        18.84275
   C        6.28970       -12.61519        18.58599
   C        6.03073       -11.74616        19.66484
   C        6.37539       -12.10587        20.93741
   C        6.99220       -13.34750        21.18988
   C        7.25528       -14.21290        20.16521
   F        7.31871       -13.67417        22.44773
   F        6.12843       -11.27766        21.96115
   C        5.94477       -12.24836        17.26497
   C        6.20780       -13.11534        16.23879
   C        6.00773       -12.99518        14.79789
   C        5.88132       -11.81488        14.11206
   C        6.02279       -11.70592        12.71241
   N        6.19341       -11.55743        11.58659
   C        5.67435       -10.56608        14.72929
   N        5.46275        -9.53094        15.17889
   H      -10.21591        -0.11013        -6.02498
   H       -8.31991         1.01918        -1.58649
   H       -9.90451        -2.48671        -5.58039
   H       -7.98707        -1.40922        -1.10454
   H       -7.97299        -7.13215        -3.59115
   H       -7.47077        -6.10441         0.17352
   H       -3.62250       -11.59159        -3.10333
   H       -3.84966        -9.86771        -2.73119
   H       -5.26353       -10.90979        -3.08148
   H       -7.58933        -6.58412         4.81923
   H       -5.90597        -7.15125         4.91929
   H       -7.18555        -8.23982         4.30919
   H       -3.20114       -11.56575         1.54499
   H       -0.19833       -11.37656         8.98893
   H        4.13254       -14.07495         6.03434
   H        3.09492       -15.50745         5.76243
   H        4.86445       -15.65355         5.66496
   H        2.42848       -10.98827        13.38942
   H        1.88402        -9.49613        12.59474
   H        3.18229       -10.46072        11.85443
   H        5.40698       -15.49035        10.34881
   H        6.32400       -15.81105        12.80004
   H        7.63345       -15.70953        17.94577
   H        5.56259       -10.79024        19.48907
   H        7.72769       -15.15982        20.37464
   H        5.47097       -11.29413        17.09684
*
