# ORCA input file
# SCF done       -196.959531175261          0.000587010924
! CAM-B3LYP def2-SVP def2/J RIJCOSX Grid4 TightSCF
%maxcore 5000
%tddft
    Mode sTDDFT
    Ethresh 5.0
    maxcore 5000
end

%pal
  nprocs 6
  end
* xyz 0 1
   C       -5.10001        -0.65132        -4.27946
   C       -3.76995        -0.33505        -4.19438
   C       -2.73420        -1.14328        -4.71018
   N       -1.84905        -1.75841        -5.10473
   C       -3.23423         0.84799        -3.64035
   N       -2.71147         1.78818        -3.23806
   C       -5.64639        -1.81412        -4.96395
   C       -7.05539        -1.68059        -5.02242
   C       -7.86387        -2.61512        -5.62413
   C       -7.25416        -3.73962        -6.18733
   C       -5.84584        -3.86955        -6.11576
   C       -5.02773        -2.92171        -5.51310
   S       -5.31154        -5.33937        -6.86775
   C       -6.94201        -5.75718        -7.26544
   C       -7.85076        -4.84483        -6.85700
   C       -7.46521        -0.43322        -4.35443
   O       -8.59951        -0.00770        -4.28921
   C       -6.21878         0.14761        -3.79240
   C       -6.07943         1.14343        -2.87035
   C       -7.02547         2.02465        -2.29334
   C       -8.34024         2.29598        -2.58631
   C       -8.90610         3.29497        -1.76979
   C       -7.97877         3.80526        -0.81423
   S       -6.43246         3.03078        -0.96855
   C       -8.31597         4.78969         0.08583
   C       -9.61653         5.29883         0.03901
   C      -10.54345         4.79317        -0.91689
   C      -10.20806         3.80586        -1.81148
   S      -12.08686         5.59309        -0.78490
   C      -11.49234         6.59438         0.52907
   C      -10.18411         6.31093         0.83913
   C      -12.35501         7.57249         1.11643
   C      -11.98914         8.43948         2.17062
   C      -12.89753         9.43058         2.68227
   N      -12.49775        10.24164         3.68342
   C      -11.31163        10.12320         4.17896
   C      -10.41743         9.14109         3.67749
   N      -10.75654         8.34699         2.71780
   F       -9.19317         9.00606         4.18364
   F      -10.95624        10.94063         5.16396
   C      -14.20691         9.61403         2.18748
   C      -14.58620         8.73209         1.15200
   C      -13.67256         7.73932         0.63765
   N      -14.22770         7.01849        -0.33750
   S      -15.72634         7.52228        -0.58503
   N      -15.76268         8.68155         0.52120
   C      -15.06903        10.63259         2.69578
   C      -16.35549        10.89205         2.28473
   C      -16.95322        11.98116         2.94907
   C      -16.07270        12.56464         3.90378
   S      -14.53929        11.73350         3.94869
   C      -16.43595        13.65085         4.66397
   C      -17.71429        14.18501         4.47858
   C      -18.59173        13.60049         3.52123
   C      -18.23304        12.51101         2.76295
   S      -20.10855        14.44744         3.45808
   C      -19.59158        15.54366         4.72608
   C      -18.31124        15.27638         5.14248
   C      -20.46313        16.59537         5.11349
   C      -20.46030        17.34113         6.24776
   C      -19.78700        17.20359         7.52390
   C      -19.43648        16.02937         8.13678
   C      -18.86924        15.95543         9.42553
   N      -18.38862        15.84312        10.46177
   C      -19.68105        14.75422         7.58777
   N      -19.89201        13.69369         7.20312
   C      -19.79206        18.51682         8.15787
   C      -20.65026        19.37502         7.42190
   C      -21.17519        18.65189         6.25059
   O      -21.97312        19.03861         5.42882
   C      -20.89184        20.67403         7.79995
   C      -20.24984        21.15114         8.94666
   C      -19.38337        20.29106         9.66443
   C      -19.14487        18.97419         9.28913
   S      -18.69225        21.09737        11.03632
   C      -19.55402        22.54612        10.64988
   C      -20.32436        22.44046         9.54524
   H       -8.93407        -2.48130        -5.65601
   H       -3.96122        -3.06858        -5.48074
   H       -7.12204        -6.67612        -7.78876
   H       -8.90989        -4.93677        -7.01606
   H       -5.07998         1.28920        -2.47573
   H       -8.88121         1.79064        -3.36487
   H       -7.60513         5.16597         0.80381
   H      -10.91792         3.42921        -2.53007
   H       -9.64935         6.82082         1.61723
   H      -16.84557        10.31311         1.52410
   H      -15.76169        14.08075         5.38727
   H      -18.90862        12.07632         2.04392
   H      -17.79061        15.87090         5.87274
   H      -21.19651        16.89677         4.37116
   H      -21.55633        21.30224         7.22738
   H      -18.47262        18.35704         9.86223
   H      -19.42806        23.40168        11.28458
   H      -20.92984        23.23804         9.15446
*
