# ORCA input file
# SCF done       -229.120349176268          0.000985933697
! CAM-B3LYP def2-SVP def2/J RIJCOSX Grid4 TightSCF
%maxcore 5000
%tddft
    Mode sTDDFT
    Ethresh 5.0
    maxcore 5000
end

%pal
  nprocs 6
  end
* xyz 0 1
   C       -2.34026        -1.35490        -0.42766
   C       -1.96209        -1.79542         0.81343
   C       -0.91128        -2.71108         1.03619
   N       -0.06498        -3.44698         1.28073
   C       -2.58753        -1.46054         2.03425
   N       -3.05986        -1.27266         3.06384
   C       -1.77320        -1.81155        -1.68953
   C       -2.56416        -1.30314        -2.74737
   C       -2.29674        -1.56981        -4.06839
   C       -1.18877        -2.37161        -4.35993
   C       -0.39792        -2.86892        -3.29595
   C       -0.67237        -2.60337        -1.96030
   S        0.92598        -3.83056        -3.87920
   C        0.40579        -3.55790        -5.52102
   C       -0.70158        -2.78583        -5.62960
  Br        1.37399        -4.31692        -6.93597
   C       -3.65797        -0.47803        -2.19866
   O       -4.53377         0.05087        -2.84905
   C       -3.43027        -0.43823        -0.73312
   C       -3.99934         0.38391         0.19907
   C       -5.07023         1.29856         0.11209
   C       -5.98001         1.59903        -0.88996
   C       -6.92157         2.55954        -0.52315
   C       -7.92912         3.12801        -1.42298
   C       -8.69917         2.30142        -2.21857
   C       -9.70654         2.84343        -3.02147
   C       -9.94064         4.20853        -3.00173
   C       -9.14694         5.04701        -2.21343
   C       -8.12484         4.51159        -1.44806
   O       -9.48109         6.36529        -2.25214
   C       -8.78941         7.26590        -1.41936
   O      -10.41386         1.95044        -3.75982
   C      -11.42203         2.43217        -4.61636
   C       -6.74861         2.99454         0.79410
   S       -5.38815         2.25749         1.54312
   C       -7.55896         3.95667         1.47971
   C       -6.99772         4.95092         2.30471
   C       -7.79210         6.05218         2.78435
   N       -7.20623         7.02497         3.48863
   C       -5.92344         6.97804         3.74645
   C       -5.14069         5.86460         3.28948
   N       -5.68574         4.90582         2.58669
   C       -3.75699         5.80159         3.59509
   N       -2.64488         5.78233         3.86604
   C       -5.34737         8.05845         4.45825
   N       -4.89054         8.94170         5.02697
   C       -9.16626         6.19950         2.48151
   C       -9.75018         5.12964         1.77087
   C       -8.95536         4.01866         1.29966
   N       -9.70597         3.10492         0.68017
   S      -11.22314         3.60038         0.65329
   N      -11.03488         4.98684         1.43781
   C       -9.84281         7.40809         2.79515
   C      -11.10012         7.81577         2.38785
   C      -11.40222         9.13954         2.72575
   C      -12.63077         9.82507         2.34159
   C      -13.83833         9.14560         2.37209
   C      -15.02124         9.80400         2.03286
   C      -14.98063        11.13860         1.66048
   C      -13.76162        11.81949         1.61341
   C      -12.58651        11.16474         1.94904
   O      -13.83930        13.11890         1.22774
   C      -12.65711        13.88485         1.20184
   O      -16.15198         9.05560         2.10424
   C      -17.38213         9.66245         1.78570
   C      -10.35380         9.75644         3.41038
   S       -9.02292         8.66307         3.66404
   C      -10.30007        11.07367         3.93006
   C       -9.17256        11.79160         4.18172
   C       -7.78900        11.55337         3.81113
   C       -7.34467        11.00719         2.63661
   C       -5.98722        10.83661         2.30106
   N       -4.90604        10.63687         1.97105
   C       -8.20399        10.58570         1.60048
   N       -8.86196        10.27559         0.71152
   C       -6.96392        12.24588         4.78835
   C       -7.79215        13.11677         5.54463
   C       -9.19725        12.94371         5.12376
   O      -10.17132        13.56121         5.48729
   C       -7.28636        13.94133         6.52032
   C       -5.91016        13.89012         6.76883
   C       -5.10010        12.99722         6.02383
   C       -5.60579        12.17186         5.02769
   S       -3.43719        13.08179         6.51201
   C       -3.84114        14.30553         7.68594
   C       -5.15568        14.63229         7.71732
  Br       -2.49276        15.03888         8.76169
   H       -2.92190        -1.17036        -4.85146
   H       -0.03697        -3.00129        -1.18704
   H       -1.15690        -2.51798        -6.56546
   H       -3.55466         0.35621         1.18760
   H       -5.94082         1.14980        -1.86523
   H       -8.55799         1.23386        -2.21187
   H      -10.72228         4.67116        -3.58053
   H       -7.47846         5.14619        -0.86271
   H       -9.25985         8.23568        -1.56835
   H       -7.73076         7.33324        -1.68776
   H       -8.87929         6.98885        -0.36311
   H      -11.82028         1.55518        -5.12385
   H      -11.01901         3.12854        -5.35794
   H      -12.22518         2.92220        -4.05668
   H      -11.74979         7.17563         1.81974
   H      -13.89098         8.11519         2.68257
   H      -15.86520        11.69061         1.39095
   H      -11.62980        11.65347         1.86806
   H      -12.96123        14.88232         0.88923
   H      -11.93451        13.48517         0.48352
   H      -12.19421        13.94136         2.19217
   H      -18.13486         8.88658         1.91551
   H      -17.39924        10.01445         0.74964
   H      -17.60297        10.49749         2.45758
   H      -11.23941        11.52431         4.23542
   H       -7.93007        14.60312         7.07828
   H       -4.96253        11.48804         4.49860
   H       -5.57655        15.36523         8.38116
*
