# ORCA input file
# SCF done       -167.280581170899          0.000799533924
! CAM-B3LYP def2-SVP def2/J RIJCOSX Grid4 TightSCF
%maxcore 5000
%tddft
    Mode sTDDFT
    Ethresh 5.0
    maxcore 5000
end

%pal
  nprocs 6
  end
* xyz 0 1
   C       -0.56797        -4.55200         5.38685
   C        0.21849        -4.04736         4.39252
   C        0.00790        -2.65418         3.91749
   O       -0.31938        -1.76109         4.64407
   O        0.14185        -2.46106         2.59140
   C        1.13164        -5.03047         3.88042
   C        0.95879        -6.23788         4.50584
   S       -0.26199        -6.20373         5.70373
   C        2.16836        -4.80289         2.90110
   C        2.88528        -3.64873         2.67035
   C        3.86019        -3.82924         1.68270
   C        3.87544        -5.13404         1.16200
   S        2.70425        -6.13911         1.89265
   C        4.88849        -5.22811         0.17664
   C        5.51684        -3.97007         0.07535
   C        4.89607        -3.05346         1.02117
   C        5.23288        -1.75202         1.24681
   C        4.58592        -0.96148         2.22134
   N        4.07425        -0.32069         3.02209
   C        6.26760        -1.11133         0.53147
   N        7.10716        -0.58565        -0.04564
   C        6.54172        -3.95566        -0.85929
   C        6.70201        -5.19257        -1.47415
   S        5.55744        -6.38901        -0.88480
   C        7.66638        -5.53863        -2.45333
   C        7.72581        -6.84539        -2.98797
   C        8.72303        -7.24098        -3.94952
   N        8.73270        -8.49597        -4.41000
   C        7.83600        -9.35708        -3.99229
   C        6.84167        -8.96240        -3.03988
   N        6.82056        -7.73683        -2.57298
   C        5.86785        -9.88771        -2.59124
   N        5.09103       -10.65440        -2.24433
   C        7.86336       -10.68067        -4.49601
   N        7.86297       -11.75700        -4.88750
   C        9.70868        -6.34917        -4.42817
   C        9.63419        -5.03083        -3.91828
   C        8.63489        -4.63437        -2.95106
   N        8.76637        -3.35097        -2.61443
   S        9.99647        -2.70826        -3.41474
   N       10.43779        -4.01424        -4.23184
   C       10.70205        -6.78029        -5.34295
   C       11.72697        -6.01338        -5.88620
   C       12.54332        -6.75826        -6.72462
   C       12.13842        -8.10546        -6.82506
   S       10.74789        -8.44905        -5.89127
   C       13.04255        -8.77322        -7.68509
   C       14.01647        -7.85892        -8.12663
   C       13.72575        -6.55663        -7.54913
   C       14.40196        -5.38970        -7.74637
   C       14.01571        -4.18484        -7.12014
   N       13.70913        -3.20207        -6.61568
   C       15.52200        -5.29950        -8.60116
   N       16.42300        -5.21488        -9.30437
   C       14.96843        -8.44032        -8.96699
   C       14.72490        -9.78668        -9.16623
   S       13.28833       -10.34029        -8.31474
   C       15.45504       -10.70627        -9.98473
   C       16.78367       -10.68449       -10.37370
   C       17.86130        -9.78073        -9.89771
   O       18.77539        -9.44297       -10.59334
   O       17.79444        -9.39835        -8.60603
   C       17.09263       -11.71803       -11.29224
   C       16.03527       -12.52081       -11.56718
   S       14.61410       -12.03154       -10.74010
   H       -1.33033        -4.02322         5.92339
   H        0.39112        -3.26619         2.11828
   H        1.51434        -7.13835         4.33155
   H        2.72364        -2.73211         3.20909
   H        7.16240        -3.11417        -1.10608
   H       11.84042        -4.97057        -5.65388
   H       15.78158        -7.91093        -9.43037
   H       17.03182        -9.76712        -8.14222
   H       18.07786       -11.84251       -11.70225
   H       15.99944       -13.37621       -12.21152
*
