# ORCA input file
# SCF done       -225.835129984758          0.000672761168
! CAM-B3LYP def2-SVP def2/J RIJCOSX Grid4 TightSCF
%maxcore 5000
%tddft
    Mode sTDDFT
    Ethresh 5.0
    maxcore 5000
end

%pal
  nprocs 6
  end
* xyz 0 1
   C       -8.40298         1.49442         6.85668
   C       -9.54022         1.58110         7.60998
   F       -9.71904         2.61556         8.44329
   C      -10.53588         0.58843         7.52220
   F      -11.64168         0.69856         8.27256
   C      -10.38012        -0.47877         6.68253
   C       -9.21870        -0.59723         5.89535
   C       -8.21156         0.40658         5.98162
   C       -7.03545         0.30830         5.20170
   C       -6.86962        -0.76386         4.36593
   C       -7.87896        -1.76328         4.29209
   C       -9.02697        -1.69420         5.02564
   C       -7.44991        -2.81166         3.34779
   O       -8.08878        -3.80277         3.03949
   C       -6.12069        -2.41629         2.87519
   C       -5.77911        -1.13994         3.46619
   C       -4.65446        -0.38592         3.23887
   C       -3.60212        -0.71520         2.36070
   N       -2.70442        -0.90570         1.66876
   C       -4.39862         0.85475         3.85834
   N       -4.13067         1.87027         4.32278
   C       -5.30815        -3.16257         2.05152
   C       -5.50736        -4.42106         1.47769
   C       -4.50423        -5.06722         0.73342
   C       -4.85098        -6.32190         0.29495
   C       -6.15948        -6.65583         0.69014
   S       -6.93791        -5.42569         1.59731
   C       -6.62390        -7.94172         0.35264
   C       -5.74964        -8.79864        -0.32595
  Ge       -4.05703        -7.84831        -0.67371
   C       -3.73997        -7.48607        -2.59722
   C       -2.49989        -8.64581         0.25844
   C       -6.30112       -10.05095        -0.52421
   C       -7.59345       -10.17569        -0.01959
   S       -8.14021        -8.67961         0.69744
   C       -8.43213       -11.32278         0.02645
   C       -8.01663       -12.63763        -0.29461
   C       -8.87720       -13.77033        -0.08743
   N       -8.42520       -15.00730        -0.37385
   C       -7.22682       -15.16740        -0.83234
   C       -6.37992       -14.05049        -1.03677
   N       -6.77246       -12.84716        -0.77362
   F       -5.14408       -14.20162        -1.51479
   F       -6.82238       -16.40377        -1.10987
   C      -10.19380       -13.66519         0.41979
   C      -10.64388       -12.34431         0.65494
   C       -9.76927       -11.21189         0.47536
   N      -10.37458       -10.06703         0.78712
   S      -11.87952       -10.36905         1.25098
   N      -11.84731       -11.96609         1.08844
   C      -10.97045       -14.80981         0.73576
   C      -12.28876       -14.82879         1.18673
   C      -12.73898       -16.09114         1.52208
   C      -11.74872       -17.06360         1.33685
   S      -10.28612       -16.41164         0.69946
   C      -12.04400       -18.37323         1.76292
   C      -13.31728       -18.61170         2.29558
  Ge      -14.34302       -16.93025         2.30008
   C      -14.73686       -16.34281         4.14820
   C      -15.90213       -16.94221         1.07058
   C      -13.41869       -19.86914         2.85230
   C      -12.24815       -20.62091         2.75748
   S      -11.01555       -19.74282         1.87531
   C      -11.96120       -21.89781         3.26407
   C      -12.58217       -22.58098         4.27650
   C      -12.37518       -24.04802         4.37338
   O      -11.57686       -24.71061         3.74962
   C      -13.37639       -24.52332         5.35091
   C      -13.66691       -25.80094         5.73137
   C      -14.69481       -26.01923         6.67670
   C      -15.40985       -24.90363         7.19989
   C      -16.43888       -25.12658         8.13639
   C      -16.73999       -26.39730         8.53913
   C      -16.03033       -27.49977         8.02347
   C      -15.02920       -27.31639         7.11108
   F      -16.34721       -28.73520         8.43616
   F      -17.71736       -26.60680         9.43197
   C      -15.08161       -23.59075         6.78986
   C      -14.07076       -23.40225         5.88639
   C      -13.48739       -22.18200         5.32597
   C      -13.61668       -20.93930         5.89836
   C      -12.87620       -19.79351         5.55161
   N      -12.30022       -18.81769         5.36156
   C      -14.47738       -20.65721         6.97833
   N      -15.18021       -20.35128         7.83367
   H       -7.65065         2.26359         6.93596
   H      -11.15117        -1.23121         6.62696
   H       -6.29383         1.08501         5.29258
   H       -9.77570        -2.46776         4.94738
   H       -4.33653        -2.74239         1.82093
   H       -3.55085        -4.60098         0.55092
   H       -4.62555        -7.05286        -3.05146
   H       -3.49732        -8.40910        -3.11471
   H       -2.91184        -6.79418        -2.71657
   H       -2.72873        -8.80443         1.30761
   H       -1.63906        -7.98847         0.18359
   H       -2.24658        -9.60077        -0.19165
   H       -5.79964       -10.86671        -1.00990
   H      -12.86989       -13.92863         1.27141
   H      -13.86864       -16.51894         4.77591
   H      -15.57555       -16.90283         4.55065
   H      -14.98246       -15.28562         4.16929
   H      -15.60421       -17.29004         0.08638
   H      -16.31108       -15.94101         0.97760
   H      -16.67785       -17.59796         1.45414
   H      -14.31957       -20.25573         3.29731
   H      -11.16414       -22.44739         2.77211
   H      -13.11893       -26.63441         5.31911
   H      -16.98868       -24.29287         8.54450
   H      -14.49542       -28.17101         6.72588
   H      -15.64517       -22.76760         7.19872
*
