# ORCA input file
# SCF done       -199.368682760002          0.000447436391
! CAM-B3LYP def2-SVP def2/J RIJCOSX Grid4 TightSCF
%maxcore 5000
%tddft
    Mode sTDDFT
    Ethresh 5.0
    maxcore 5000
end

%pal
  nprocs 6
  end
* xyz 0 1
   C        1.97780        -3.70604         5.19507
   O        1.48078        -4.81624         5.26104
   C        2.84566        -3.08088         6.21235
   C        3.21913        -1.79638         5.77942
   C        4.04364        -1.02079         6.57687
   C        4.47973        -1.54197         7.79065
   C        4.10185        -2.81844         8.21042
   C        3.27435        -3.60093         7.41518
  Br        4.71372        -3.50141         9.86292
  Br        5.61239        -0.48626         8.87545
   C        2.60753        -1.54188         4.47425
   C        2.73168        -0.37746         3.76213
   C        3.48342         0.73607         4.19542
   N        4.07865         1.67153         4.49101
   C        2.13646        -0.10701         2.51162
   N        1.68886         0.19400         1.49768
   C        1.85840        -2.72878         4.11156
   C        1.17514        -2.92060         2.93394
   C        0.42477        -4.01382         2.48765
   C       -0.17836        -4.02643         1.22335
   C       -0.87546        -5.18942         0.97819
   C       -0.83250        -6.09611         2.06075
   S        0.10036        -5.49733         3.37846
   C       -1.55392        -7.25368         1.77476
   C       -2.12384        -7.24306         0.47984
   S       -1.79760        -5.77225        -0.39246
   C       -2.77450        -8.45186         0.30303
   C       -2.61742        -9.16547         1.50232
   N       -1.86987        -8.42667         2.38112
   C       -1.32926        -8.81120         3.65629
   C       -3.19185       -10.45705         1.76250
   C       -3.79244       -10.82768         2.98167
   C       -4.39171       -12.12865         3.16099
   N       -4.94788       -12.44662         4.33340
   C       -4.99684       -11.56661         5.30344
   C       -4.45942       -10.25410         5.10134
   N       -3.87376        -9.92777         3.97609
   C       -4.54042        -9.28453         6.13272
   N       -4.60364        -8.51766         6.98093
   C       -5.58466       -11.93723         6.53657
   N       -6.05763       -12.22214         7.54027
   C       -4.43443       -13.10677         2.14129
   C       -3.85900       -12.72199         0.90965
   C       -3.26526       -11.41574         0.72860
   N       -2.77653       -11.26693        -0.50475
   S       -3.04121       -12.60389        -1.34486
   N       -3.78094       -13.45402        -0.20205
   C       -5.03936       -14.36794         2.37473
   C       -5.13865       -15.42964         1.48665
   C       -5.79614       -16.51627         2.04449
   C       -6.21436       -16.29805         3.36845
   S       -5.77128       -14.72043         3.92652
   C       -6.87295       -17.41108         3.88779
   C       -6.95825       -18.47669         2.95220
   S       -6.20787       -18.10211         1.42842
   C       -7.65051       -19.50708         3.55391
   C       -7.97031       -19.06913         4.85645
   N       -7.46719       -17.79636         5.03559
   C       -7.63339       -16.97408         6.20289
   C       -8.57519       -19.77975         5.91062
   C       -9.32589       -20.92090         5.86420
   C       -9.45155       -21.75057         7.08827
   O       -9.11868       -21.44809         8.21078
   C      -10.01833       -23.03692         6.62385
   C      -10.32171       -22.94651         5.25259
   C      -10.02882       -21.58832         4.79448
   C      -10.56509       -20.99944         3.67818
   C      -10.49979       -19.61295         3.43353
   N      -10.50934       -18.48375         3.22910
   C      -11.31987       -21.69271         2.71055
   N      -11.92127       -22.22351         1.88995
   C      -10.83543       -24.04471         4.58581
   C      -11.04385       -25.21864         5.30209
   C      -10.75469       -25.29596         6.66577
   C      -10.23545       -24.19626         7.33807
  Br      -11.05997       -26.90091         7.61639
  Br      -11.72883       -26.72713         4.39168
   H        4.35893        -0.03139         6.28843
   H        2.97350        -4.58863         7.72818
   H        1.21091        -2.11195         2.21426
   H       -0.09139        -3.20507         0.53530
   H       -3.32092        -8.78994        -0.55226
   H       -1.97306        -8.47546         4.47127
   H       -0.34803        -8.35016         3.77487
   H       -1.22480        -9.89373         3.70664
   H       -4.74370       -15.38404         0.48927
   H       -7.86372       -20.47365         3.14426
   H       -8.69260       -16.84473         6.43157
   H       -7.19079       -15.99833         6.01082
   H       -7.13539       -17.42185         7.06556
   H       -8.34651       -19.43988         6.91603
   H      -11.06744       -24.01937         3.53308
   H      -10.00738       -24.24664         8.39141
*
