# ORCA input file
# SCF done       -186.706477675285          0.000277771501
! CAM-B3LYP def2-SVP def2/J RIJCOSX Grid4 TightSCF
%maxcore 5000
%tddft
    Mode sTDDFT
    Ethresh 5.0
    maxcore 5000
end

%pal
  nprocs 6
  end
* xyz 0 1
   C       -4.65374        -4.31950        -1.06906
   C       -5.31123        -4.35055        -2.29538
   C       -6.69268        -3.78918        -2.39966
   C       -4.68800        -4.90472        -3.42588
   C       -5.39528        -4.93215        -4.74201
   C       -3.40622        -5.43318        -3.31532
   C       -2.76215        -5.40124        -2.09488
   C       -3.37572        -4.84242        -0.96096
   C       -2.46256        -4.94709         0.16802
   C       -2.64116        -4.37938         1.40132
   C       -3.79221        -3.65315         1.77405
   N       -4.70520        -3.06045         2.13819
   C       -1.69676        -4.40405         2.44968
   N       -0.96953        -4.36720         3.33764
   C       -1.29096        -5.68467        -0.28082
   C       -1.42643        -5.91113        -1.74783
   O       -0.64442        -6.45710        -2.49488
   C       -0.36837        -6.24663         0.54929
   C        0.82837        -6.92684         0.21983
   C        1.62817        -6.88530        -0.91178
   C        2.74292        -7.70958        -0.79232
   C        2.79500        -8.39372         0.43784
   S        1.50013        -7.98813         1.46057
   C        3.93271        -9.24223         0.43747
   C        4.60686        -9.08349        -0.78929
   C        3.89214        -8.10476        -1.59413
   C        4.23568        -7.64134        -2.82888
   C        5.37737        -8.10819        -3.51632
   N        6.29910        -8.48176        -4.08616
   C        3.49714        -6.64532        -3.50524
   N        2.93084        -5.82151        -4.06567
   C        5.73994        -9.89280        -0.88420
   C        5.90695       -10.65312         0.25367
   S        4.67946       -10.38002         1.46301
   C        6.92149       -11.62608         0.53543
   N        6.82168       -12.27601         1.69183
   C        7.75458       -13.19698         1.91905
   N        8.75723       -13.47519         1.07908
   C        8.76584       -12.75908        -0.02774
   N        7.88755       -11.83525        -0.36490
   C        7.64867       -13.93485         3.14320
   C        8.44464       -14.96631         3.59385
   C        7.99688       -15.44927         4.82408
   C        6.85940       -14.76199         5.29317
   S        6.34167       -13.53702         4.22952
   C        6.47595       -15.32380         6.54046
   C        7.36431       -16.36924         6.84937
   C        8.35602       -16.47376         5.79013
   C        9.40907       -17.33888         5.74631
   C        9.63467       -18.27300         6.77994
   N        9.80155       -19.03275         7.62250
   C       10.32982       -17.36178         4.67713
   N       11.07933       -17.39321         3.81054
   C        7.08003       -16.98020         8.06578
   C        5.98961       -16.40326         8.69749
   S        5.29022       -15.10572         7.74034
   C        5.37963       -16.75458         9.92624
   C        5.87959       -17.48754        10.95377
   C        4.92022       -18.07080        11.94468
   O        3.75900       -17.76294        12.07962
   C        5.68487       -19.11166        12.64667
   C        7.02892       -19.07053        12.23244
   C        7.92801       -19.99267        12.73851
   C        7.49632       -20.94073        13.66198
   C        6.15730       -20.96488        14.08645
   C        5.25240       -20.04453        13.56804
   C        5.70023       -21.97632        15.08744
   C        8.47262       -21.93539        14.20133
   C        7.20568       -17.96255        11.29952
   C        8.39786       -17.34467        11.02958
   C        8.51412       -16.13752        10.31351
   N        8.64932       -15.14266         9.75639
   C        9.64186       -17.79432        11.52203
   N       10.67600       -18.11430        11.90187
   H       -5.15472        -3.89437        -0.21408
   H       -7.02615        -3.40304        -1.44053
   H       -7.39301        -4.55578        -2.72977
   H       -6.72261        -2.98110        -3.12967
   H       -6.32503        -5.49509        -4.66500
   H       -4.77256        -5.39193        -5.50428
   H       -5.64915        -3.92209        -5.06176
   H       -2.90792        -5.86556        -4.17003
   H       -0.57690        -6.21929         1.61295
   H        1.39735        -6.28180        -1.76927
   H        6.41531        -9.95131        -1.71797
   H        9.56793       -12.95126        -0.72916
   H        9.29021       -15.32595         3.03658
   H        7.60522       -17.83035         8.46080
   H        4.34326       -16.45240        10.04612
   H        8.95750       -19.99722        12.41678
   H        4.21816       -20.04973        13.87805
   H        5.86690       -22.98635        14.71441
   H        4.64207       -21.85534        15.30196
   H        6.25819       -21.87396        16.01755
   H        9.45949       -21.77741        13.77580
   H        8.15109       -22.95070        13.97137
   H        8.54366       -21.85118        15.28513
*
