# ORCA input file
# SCF done       -177.011893700742          0.000906160675
! CAM-B3LYP def2-SVP def2/J RIJCOSX Grid4 TightSCF
%maxcore 5000
%tddft
    Mode sTDDFT
    Ethresh 5.0
    maxcore 5000
end

%pal
  nprocs 6
  end
* xyz 0 1
   C       -1.47275         2.49978         5.41222
   C       -1.21697         1.18588         5.33686
   C       -1.53933         0.46398         4.13068
   C       -1.30463        -0.88984         3.99655
   C       -1.62080        -1.58585         2.81686
   N       -1.88088        -2.14903         1.85056
   C       -0.73963        -1.64972         5.03493
   N       -0.27927        -2.26556         5.88794
   C       -2.12317         1.24493         3.08819
   C       -2.35035         2.57765         3.26273
   O       -2.02693         3.21865         4.41943
   C       -2.95180         3.44519         2.29613
   C       -3.41123         3.15643         1.02373
   C       -3.96216         4.28027         0.41256
   C       -3.91714         5.42901         1.23055
   S       -3.19403         5.12437         2.74375
   C       -4.51883         6.50749         0.54140
   C       -4.94785         6.03815        -0.71902
   C       -4.60719         4.62954        -0.84287
   C       -4.85023         3.81417        -1.90836
   C       -5.49669         4.27603        -3.07520
   N       -6.02194         4.64526        -4.02498
   C       -4.47278         2.45404        -1.91267
   N       -4.16722         1.34935        -1.91860
   C       -5.57852         7.01737        -1.47087
   C       -5.63695         8.23264        -0.79596
   S       -4.88819         8.15992         0.79070
   C       -6.23805         9.42826        -1.26119
   C       -6.23332        10.60423        -0.47350
   C       -6.85466        11.83952        -0.88464
   N       -6.82598        12.88987        -0.05140
   C       -6.22971        12.78951         1.11053
   C       -5.59256        11.56987         1.50852
   N       -5.61898        10.52970         0.71243
   C       -4.93794        11.46388         2.76039
   N       -4.41614        11.39662         3.77756
   C       -6.22865        13.89865         1.99567
   N       -6.20953        14.75633         2.75353
   C       -7.51579        11.94558        -2.13450
   C       -7.52243        10.76830        -2.91625
   C       -6.89757         9.53649        -2.50566
   N       -7.04826         8.58375        -3.42702
   S       -7.87781         9.16019        -4.66838
   N       -8.09762        10.65154        -4.11396
   C       -8.16255        13.12023        -2.60453
   C       -8.17306        14.38914        -2.03577
   C       -8.93939        15.28247        -2.77062
   C       -9.52947        14.69282        -3.90848
   S       -9.10962        13.04772        -4.08547
   C      -10.31045        15.67553        -4.56165
   C      -10.21494        16.88463        -3.84425
   C       -9.33812        16.68023        -2.70290
   C       -8.95531        17.60396        -1.77628
   C       -9.41671        18.93702        -1.81573
   N       -9.79684        20.01799        -1.85137
   C       -8.05843        17.28858        -0.73202
   N       -7.31867        17.04626         0.10899
   C      -10.96869        17.91014        -4.41111
   C      -11.63640        17.48806        -5.54601
   S      -11.32633        15.80484        -5.92655
   C      -12.50992        18.27752        -6.36404
   C      -13.17125        17.80472        -7.45790
   C      -14.03388        18.65146        -8.21580
   C      -14.72356        18.20040        -9.32345
   C      -15.57338        19.04115       -10.06174
   N      -16.26738        19.73355       -10.65988
   C      -14.61257        16.87215        -9.76862
   N      -14.51206        15.78305       -10.11937
   C      -14.13408        20.00802        -7.73806
   C      -13.44204        20.38115        -6.65151
   O      -12.63546        19.56618        -5.94752
   H       -1.26129         3.11074         6.27658
   H       -0.77354         0.66222         6.16731
   H       -2.39024         0.76774         2.15966
   H       -3.34907         2.18277         0.57395
   H       -5.99103         6.89256        -2.45511
   H       -7.64292        14.61655        -1.12995
   H      -11.04445        18.91294        -4.03211
   H      -13.04593        16.77498        -7.75591
   H      -14.76494        20.70987        -8.25763
   H      -13.46419        21.37571        -6.23223
*
