# ORCA input file
# SCF done       -229.393849828761          0.000620449852
! CAM-B3LYP def2-SVP def2/J RIJCOSX Grid4 TightSCF
%maxcore 5000
%tddft
    Mode sTDDFT
    Ethresh 5.0
    maxcore 5000
end

%pal
  nprocs 6
  end
* xyz 0 1
   C       -3.95058         1.28983        -4.93429
   C       -4.57707         1.48028        -6.13364
   F       -4.58224         2.69120        -6.70614
   C       -5.22490         0.40997        -6.78303
   F       -5.83124         0.62605        -7.95826
   C       -5.23797        -0.83634        -6.22281
   C       -4.60227        -1.06439        -4.98677
   C       -3.94445         0.01615        -4.33015
   C       -3.29566        -0.19028        -3.09164
   C       -3.30582        -1.43924        -2.52723
   C       -3.97358        -2.50806        -3.18406
   C       -4.60620        -2.34049        -4.38213
   C       -3.86047        -3.74085        -2.37761
   O       -4.30487        -4.82512        -2.68812
   C       -3.15438        -3.33676        -1.13377
   C       -2.73457        -1.94996        -1.28692
   C       -1.88356        -1.26327        -0.46357
   C       -1.25150        -1.79404         0.68215
   N       -0.68410        -2.15405         1.61307
   C       -1.48928         0.07438        -0.67991
   N       -1.13896         1.16062        -0.80126
   C       -3.10124        -4.01882         0.04487
   C       -3.45760        -5.37799         0.33032
   C       -3.35804        -6.39947        -0.61712
   C       -3.76671        -7.66997        -0.25759
   C       -4.24132        -7.95378         1.05200
   C       -4.29154        -6.93672         2.00495
   C       -3.89447        -5.67434         1.64393
   C       -4.55934        -9.34302         1.06981
   C       -4.26943        -9.83654        -0.23059
   N       -3.80234        -8.81343        -1.01293
   C       -3.41978        -8.91145        -2.39387
   C       -4.47217       -11.16728        -0.55390
   C       -4.96578       -12.02198         0.42893
   C       -5.26062       -11.52737         1.71482
   C       -5.05915       -10.20833         2.04039
   C       -5.17089       -13.43473         0.13961
   C       -4.29227       -14.17336        -0.67464
   C       -4.49806       -15.57787        -0.95978
   N       -3.67139       -16.20575        -1.81837
   C       -2.65491       -15.56531        -2.32584
   C       -2.38127       -14.20428        -1.94429
   N       -3.19746       -13.55649        -1.15906
   C       -1.23055       -13.53860        -2.43506
   N       -0.30659       -13.01272        -2.86201
   C       -1.80591       -16.21995        -3.25298
   N       -1.08504       -16.70648        -3.99848
   C       -5.57131       -16.30351        -0.41228
   C       -6.45528       -15.56301         0.39027
   C       -6.25074       -14.15724         0.67253
   N       -7.21689       -13.67085         1.46187
   S       -8.24306       -14.84117         1.82029
   N       -7.55080       -16.03036         1.00405
   C       -5.76331       -17.72869        -0.64551
   C       -7.05510       -18.23164        -0.78652
   C       -7.21658       -19.59363        -0.96618
   C       -6.09852       -20.46682        -1.01232
   C       -4.81323       -19.95029        -0.87451
   C       -4.65624       -18.59691        -0.69302
   C       -6.62253       -21.78100        -1.19658
   C       -8.03622       -21.64434        -1.25292
   N       -8.37074       -20.32328        -1.10663
   C       -9.70098       -19.78409        -1.13210
   C       -8.85305       -22.74925        -1.40799
   C       -8.25608       -24.00164        -1.55771
   C       -6.85377       -24.13219        -1.49040
   C       -6.04108       -23.04119        -1.30170
   C       -9.09610       -25.15941        -1.72371
   C       -8.82305       -26.30591        -2.39073
   C       -9.61330       -27.53759        -2.11234
   O      -10.66186       -27.60738        -1.51525
   C       -8.80629       -28.64551        -2.66478
   C       -9.01244       -29.99101        -2.56016
   C       -8.08138       -30.87645        -3.14750
   C       -6.94728       -30.34782        -3.83042
   C       -6.01821       -31.23767        -4.40661
   C       -6.20787       -32.58760        -4.31262
   C       -7.33076       -33.10927        -3.63874
   C       -8.24854       -32.27292        -3.06805
   F       -7.49030       -34.43716        -3.56113
   F       -5.32460       -33.43154        -4.86150
   C       -6.76342       -28.95001        -3.92929
   C       -7.68356       -28.11063        -3.35969
   C       -7.76980       -26.65373        -3.32736
   C       -7.15233       -25.79930        -4.19960
   C       -7.47175       -24.42857        -4.30574
   N       -7.74578       -23.32839        -4.48209
   C       -6.19770       -26.21242        -5.15151
   N       -5.40496       -26.50770        -5.92704
   H       -3.45787         2.11949        -4.45185
   H       -5.73844        -1.64522        -6.73173
   H       -2.81239         0.64810        -2.61673
   H       -5.10413        -3.17056        -4.85995
   H       -2.81196        -3.44724         0.92005
   H       -2.94615        -6.20103        -1.59031
   H       -4.63219        -7.14491         3.00751
   H       -3.93259        -4.87258         2.36628
   H       -4.02130        -9.67332        -2.88770
   H       -2.36367        -9.17804        -2.49461
   H       -3.59703        -7.95593        -2.88573
   H       -4.26967       -11.53723        -1.54511
   H       -5.63330       -12.21198         2.45892
   H       -5.27868        -9.84620         3.03295
   H       -7.89774       -17.56052        -0.77133
   H       -3.95568       -20.60442        -0.90228
   H       -3.66765       -18.18909        -0.56034
   H      -10.40237       -20.51624        -0.73412
   H      -10.00232       -19.52468        -2.15153
   H       -9.74294       -18.88979        -0.51145
   H       -9.92710       -22.66048        -1.46428
   H       -6.42015       -25.11972        -1.54787
   H       -4.97000       -23.15512        -1.23788
   H      -10.04566       -25.14681        -1.19708
   H       -9.87390       -30.37498        -2.03526
   H       -5.15535       -30.85501        -4.92899
   H       -9.10230       -32.68769        -2.55543
   H       -5.89314       -28.57550        -4.44456
*
