# ORCA input file
# SCF done       -200.992700061785          0.000386091227
! CAM-B3LYP def2-SVP def2/J RIJCOSX Grid4 TightSCF
%maxcore 5000
%tddft
    Mode sTDDFT
    Ethresh 5.0
    maxcore 5000
end

%pal
  nprocs 6
  end
* xyz 0 1
   C        1.42001         1.20904         1.28062
   C        0.49705         1.34306         0.27579
   C        0.51641         0.58164        -0.91200
   N        0.48220        -0.01521        -1.89118
   C       -0.63208         2.17994         0.35411
   N       -1.57546         2.83377         0.39059
   C        2.45697         0.18277         1.32805
   C        2.86557         0.01126         2.68328
   C        3.80156        -0.91700         3.03838
   C        4.39182        -1.71813         2.03516
   C        4.00538        -1.53403         0.67570
   C        3.02608        -0.57141         0.33795
   C        4.61228        -2.33058        -0.31627
   C        5.55219        -3.26778         0.01666
   C        5.92951        -3.45066         1.35541
   C        5.36159        -2.69253         2.34314
   C        2.14863         0.97617         3.53184
   O        2.18948         1.09690         4.73453
   C        1.38541         1.84256         2.58248
   C        0.90378         3.02953         3.04108
   C        0.48801         4.16848         2.31592
   C        0.75422         4.51876         0.99985
   C        0.18805         5.73974         0.65683
   C       -0.51100         6.33967         1.72295
   S       -0.45327         5.40440         3.14240
   C       -1.06371         7.56189         1.26652
   C       -0.72179         7.73030        -0.09172
   C        0.06839         6.58653        -0.51911
   C        0.57270         6.32880        -1.75930
   C        0.39749         7.20590        -2.85091
   N        0.26773         7.91421        -3.74248
   C        1.31110         5.15448        -2.01987
   N        1.91515         4.19941        -2.21421
   C       -1.22601         8.91143        -0.62849
   C       -1.93743         9.63446         0.31404
   S       -1.99447         8.85310         1.87795
   C       -2.58266        10.89194         0.11977
   N       -2.54615        11.45466        -1.08107
   N       -3.10686        12.59319        -1.33595
   C       -3.76168        13.30902        -0.43251
   C       -3.87147        12.81889         0.90060
   C       -3.25919        11.55858         1.18006
   N       -3.41928        11.18841         2.44628
   S       -4.26506        12.32634         3.21138
   N       -4.46294        13.33333         1.97489
   C       -4.32904        14.54749        -0.85290
   C       -5.02238        15.46537        -0.08557
   C       -5.42519        16.56058        -0.84505
   C       -5.03160        16.45940        -2.19550
   S       -4.16485        15.02563        -2.52650
   C       -5.49160        17.61204        -2.87967
   C       -6.17273        18.44340        -1.96124
   C       -6.14803        17.80740        -0.65287
   C       -6.68026        18.27077         0.51339
   C       -7.36375        19.50178         0.62586
   N       -7.92191        20.49286         0.76525
   C       -6.58160        17.54206         1.71907
   N       -6.50670        16.95905         2.70352
   C       -6.66923        19.60449        -2.53723
   C       -6.38203        19.67950        -3.89487
   S       -5.46641        18.26572        -4.44582
   C       -6.66437        20.63787        -4.89086
   C       -7.35533        21.81715        -4.85499
   C       -7.53412        22.68195        -6.01480
   C       -6.97262        22.53650        -7.25753
   C       -7.19282        23.42549        -8.33207
   N       -7.32356        24.09981        -9.25190
   C       -6.08811        21.51811        -7.67153
   N       -5.35860        20.73998        -8.09902
   C       -8.40759        23.78228        -5.62340
   C       -8.72750        23.63681        -4.24510
   C       -8.08175        22.42831        -3.71145
   O       -8.15393        22.03523        -2.56606
   C       -9.52549        24.52669        -3.58558
   C      -10.05688        25.62758        -4.29280
   C       -9.74893        25.77891        -5.67587
   C       -8.91680        24.84113        -6.32921
   C      -10.28783        26.87872        -6.37436
   C      -11.09057        27.78641        -5.73870
   C      -11.39156        27.63698        -4.37651
   C      -10.88575        26.58043        -3.66880
   H        4.09033        -1.03784         4.07189
   H        2.75977        -0.44380        -0.69966
   H        4.31609        -2.18848        -1.34508
   H        6.01010        -3.87420        -0.75030
   H        6.67278        -4.19457         1.60024
   H        5.64852        -2.82831         3.37566
   H        0.90412         3.12895         4.12281
   H        1.36947         3.92548         0.34858
   H       -1.10389         9.26130        -1.63712
   H       -5.20781        15.31686         0.96279
   H       -7.21878        20.37349        -2.02311
   H       -6.25370        20.36152        -5.85492
   H       -9.74712        24.38938        -2.53764
   H       -8.70667        24.98703        -7.37647
   H      -10.05270        26.99030        -7.42270
   H      -11.49823        28.62543        -6.28240
   H      -12.02628        28.36311        -3.89102
   H      -11.11375        26.45947        -2.61994
*
