# ORCA input file
# SCF done       -215.667963755119          0.000389254363
! CAM-B3LYP def2-SVP def2/J RIJCOSX Grid4 TightSCF
%maxcore 5000
%tddft
    Mode sTDDFT
    Ethresh 5.0
    maxcore 5000
end

%pal
  nprocs 6
  end
* xyz 0 1
   C        3.49368         4.17420         3.64224
   C        3.97224         5.21369         2.88776
   C        4.98047         6.09620         3.32359
   N        5.78921         6.84601         3.64157
   C        3.56691         5.44726         1.55808
   N        3.27839         5.63610         0.46294
   C        4.06246         3.71140         4.90217
   C        3.69193         2.34694         5.08895
   C        4.11242         1.63456         6.17477
   C        4.92227         2.26926         7.14395
   C        5.28092         3.63760         6.97009
   C        4.84051         4.34842         5.82992
   C        6.07970         4.26041         7.95032
   C        6.50737         3.56656         9.04940
   C        6.15556         2.21920         9.21912
   C        5.38094         1.58431         8.28644
   C        2.82061         1.92070         3.97829
   O        2.36140         0.82325         3.76352
   C        2.55391         3.16587         3.19971
   C        1.48831         3.21289         2.35639
   C        0.77375         4.33599         1.87803
   C       -0.14005         4.33247         0.83441
   C       -0.74132         5.57354         0.65425
   C       -0.30886         6.53014         1.59563
   S        0.84367         5.90667         2.67738
   C       -0.98806         7.74925         1.35719
   C       -1.84565         7.56670         0.25647
   C       -1.72950         6.19457        -0.21231
   C       -2.43346         5.61179        -1.22502
   C       -3.41027         6.32085        -1.95545
   N       -4.21886         6.89023        -2.53627
   C       -2.25713         4.25932        -1.58651
   N       -2.12479         3.15984        -1.88285
   C       -2.55862         8.71607        -0.06858
   C       -2.26728         9.76810         0.78618
   S       -1.06958         9.33019         1.99575
   C       -2.81853        11.08666         0.81218
   C       -3.82778        11.56049        -0.03736
   O       -4.30379        10.70747        -0.97865
   C       -5.70266        10.63993        -1.22899
   C       -4.31302        12.89618         0.05693
   O       -5.21752        13.34959        -0.88090
   C       -4.64241        13.62044        -2.15186
   C       -3.93995        13.78883         1.05952
   C       -2.94050        13.31888         1.95188
   C       -2.37472        12.00651         1.79578
   N       -1.46572        11.85990         2.73864
   O       -1.45936        12.99590         3.43195
   N       -2.33554        13.88275         2.97720
   C       -4.50934        15.08857         1.18934
   C       -4.17667        16.04184         2.13970
   C       -4.95292        17.18921         2.01310
   C       -5.88449        17.10402         0.95948
   S       -5.79720        15.61610         0.12477
   C       -6.63315        18.30375         0.92637
   C       -6.17565        19.15300         1.95991
   C       -5.10929        18.47400         2.67941
   C       -4.41675        18.92809         3.76133
   C       -4.67323        20.17378         4.37627
   N       -4.86611        21.16713         4.91417
   C       -3.39096        18.17226         4.37084
   N       -2.55303        17.57494         4.87580
   C       -6.84817        20.36571         2.00952
   C       -7.82762        20.46307         1.02832
   S       -7.89925        18.99900         0.03282
   C       -8.78511        21.45186         0.72568
   C       -8.95572        22.71922         1.21142
   C      -10.08017        23.57467         0.86316
   C      -11.21385        23.21393         0.17989
   C      -12.27530        24.09763        -0.10988
   N      -13.17392        24.75712        -0.38506
   C      -11.51928        21.92809        -0.31301
   N      -11.85745        20.91412        -0.73491
   C       -9.83427        24.89382         1.43349
   C       -8.61049        24.85093         2.15786
   C       -8.02374        23.50534         2.06043
   O       -6.97014        23.15292         2.54749
   C       -8.11932        25.93941         2.81900
   C       -8.84768        27.14919         2.78618
   C      -10.07149        27.20447         2.05838
   C      -10.55242        26.05974         1.38213
   C      -10.78999        28.41715         2.03058
   C      -10.32477        29.52173         2.69084
   C       -9.12002        29.46564         3.40754
   C       -8.39700        28.30454         3.45415
   H        3.82963         0.59944         6.29584
   H        5.11673         5.38616         5.72411
   H        6.35050         5.29699         7.81328
   H        7.11970         4.05234         9.79423
   H        6.50093         1.68692        10.09272
   H        5.10696         0.54703         8.41221
   H        1.06901         2.24833         2.08499
   H       -0.32407         3.46119         0.23187
   H       -3.24961         8.80020        -0.88423
   H       -5.88965         9.60902        -1.53123
   H       -6.00746        11.30881        -2.03515
   H       -6.27772        10.87124        -0.33121
   H       -5.46686        13.92179        -2.79457
   H       -4.14700        12.73921        -2.56685
   H       -3.91646        14.43657        -2.08226
   H       -3.40863        15.87462         2.87246
   H       -6.64982        21.15954         2.70691
   H       -9.49950        21.12808        -0.02239
   H       -7.18849        25.87471         3.36260
   H      -11.47964        26.13849         0.83756
   H      -11.71766        28.45532         1.47854
   H      -10.88332        30.44538         2.66481
   H       -8.76788        30.34690         3.92255
   H       -7.46880        28.25462         4.00433
*
