# ORCA input file
# SCF done       -164.791132346990          0.001006770109
! CAM-B3LYP def2-SVP def2/J RIJCOSX Grid4 TightSCF
%maxcore 5000
%tddft
    Mode sTDDFT
    Ethresh 5.0
    maxcore 5000
end

%pal
  nprocs 6
  end
* xyz 0 1
   C       16.31304         3.74827        -4.67315
   C       16.82765         4.17406        -3.47652
   C       17.90204         5.04625        -3.28324
   N       18.78313         5.76427        -3.12754
   S       15.96980         3.49644        -2.12245
   C       14.90183         2.62925        -3.18068
   C       15.22067         2.87152        -4.51689
   C       14.54989         2.33280        -5.62855
   N       14.03501         1.92263        -6.56749
   C       13.86242         1.82229        -2.64650
   C       12.93055         1.05234        -3.32440
   C       12.04480         0.42435        -2.45154
   C       12.30356         0.71753        -1.09678
   S       13.63988         1.75565        -0.90059
   C       11.33226         0.08149        -0.29175
   C       10.45304        -0.62401        -1.14035
   C       10.87554        -0.43800        -2.52099
   C       10.28044        -0.95028        -3.63478
   C       10.76197        -0.70698        -4.93994
   N       11.13807        -0.52129        -6.00632
   C        9.12803        -1.76287        -3.55915
   N        8.18858        -2.41773        -3.50573
   C        9.42427        -1.24593        -0.44875
   C        9.50337        -1.01214         0.92025
   S       10.89288        -0.03152         1.35779
   C        8.55853        -1.39883         1.90342
   C        8.71262        -1.00586         3.25198
   C        7.67954        -1.20572         4.23394
   N        7.87078        -0.78553         5.48840
   C        8.99832        -0.20382         5.82060
   C       10.02452         0.00010         4.84215
   N        9.84989        -0.39744         3.60473
   C       11.24380         0.62762         5.19885
   N       12.22131         1.13562         5.51164
   C        9.19422         0.20979         7.16160
   N        9.38207         0.55040         8.23865
   C        6.44376        -1.81483         3.91586
   C        6.34006        -2.32616         2.60033
   C        7.37554        -2.11876         1.61219
   N        7.04471        -2.66030         0.43982
   S        5.60674        -3.35774         0.55712
   N        5.31209        -3.00626         2.09217
   C        5.37433        -1.82193         4.84526
   C        4.10824        -2.36774         4.66005
   C        3.26031        -2.07717         5.71851
   C        3.88248        -1.30024         6.71863
   S        5.52120        -0.96509         6.37269
   C        2.91597        -0.99863         7.70779
   C        1.68946        -1.58479         7.34212
   C        1.86512        -2.28379         6.08031
   C        0.92029        -2.95652         5.36391
   C        1.21920        -3.58922         4.13788
   N        1.45369        -4.10409         3.14080
   C       -0.42560        -3.04408         5.78181
   N       -1.52475        -3.09659         6.10242
   C        0.66590        -1.30684         8.24887
   C        1.10102        -0.49886         9.28096
   S        2.80410        -0.08927         9.14514
   C        0.31310         0.01279        10.36578
   C        0.57381         1.18620        11.05644
   C        1.60021         2.10454        10.82773
   N        2.42381         2.88412        10.64917
   S       -0.60666         1.51224        12.29075
   C       -1.44840         0.08261        11.89768
   C       -0.86895        -0.61772        10.87276
   C       -1.37165        -1.86028        10.43954
   N       -1.78552        -2.88049        10.12270
   H       16.69952         4.05235        -5.62983
   H       12.90393         0.96608        -4.39532
   H        8.63302        -1.83133        -0.87960
   H        3.85386        -2.92691         3.77846
   H       -0.34759        -1.65144         8.15232
   H       -2.33160        -0.19097        12.44175
*
