# ORCA input file
# SCF done       -158.670186007524          0.000760867719
! CAM-B3LYP def2-SVP def2/J RIJCOSX Grid4 TightSCF
%maxcore 5000
%tddft
    Mode sTDDFT
    Ethresh 5.0
    maxcore 5000
end

%pal
  nprocs 6
  end
* xyz 0 1
   C       -7.62222        -1.14695        -0.77501
   O       -8.09375        -2.24210        -0.97442
   C       -8.16405         0.13585        -1.27242
   C       -7.37412         1.20492        -0.81506
   C       -7.70770         2.50455        -1.17349
   C       -8.82123         2.71093        -1.97204
   C       -9.59291         1.63911        -2.40652
   C       -9.27613         0.33121        -2.06601
  Br      -11.11426         1.97445        -3.49076
   C       -6.29798         0.67070         0.00961
   C       -5.43711         1.40336         0.77823
   C       -5.41818         2.81522         0.80880
   N       -5.35700         3.95955         0.86292
   C       -4.49801         0.86001         1.68398
   N       -3.74303         0.49860         2.46861
   C       -6.37506        -0.78559        -0.04493
   C       -5.35923        -1.61486         0.31300
   C       -5.31333        -3.04494         0.35201
   C       -6.37349        -3.91496         0.53924
   C       -6.21587        -5.30583         0.61404
   C       -4.99593        -5.95601         0.52030
   C       -3.86892        -5.09892         0.34769
   C       -4.03523        -3.66831         0.27370
   N       -2.83930        -3.14023         0.11299
   O       -1.98452        -4.15330         0.09201
   N       -2.57613        -5.33611         0.22885
   C       -4.86453        -7.39271         0.60584
   C       -3.64046        -8.03765         0.55637
   C       -3.48933        -9.42730         0.65045
   C       -4.54833       -10.30689         0.79491
   C       -5.83311        -9.69215         0.84028
   C       -5.98868        -8.25622         0.75364
   N       -7.28068        -8.00565         0.83930
   O       -7.88909        -9.17788         0.96884
   N       -7.04284       -10.20083         0.97280
   C       -4.37211       -11.73770         0.89475
   C       -5.43526       -12.62427         0.92893
   C       -5.28155       -14.01290         1.01889
   C       -4.05134       -14.64566         1.04113
   C       -2.92902       -13.77400         1.04394
   C       -3.08254       -12.33991         0.97601
   N       -1.86938       -11.82639         1.03408
   O       -1.02630       -12.84618         1.13582
   N       -1.63911       -14.02660         1.14465
   C       -3.94519       -16.07215         1.12840
   C       -2.93051       -16.88805         0.75952
   C       -2.88903       -18.27987         1.30538
   O       -3.78860       -18.86788         1.85251
   C       -1.50218       -18.73535         1.07414
   C       -0.80977       -17.77160         0.31631
   C       -1.72498       -16.68741        -0.02312
   C       -1.56341       -15.80636        -1.05505
   C       -0.39833       -15.72766        -1.84804
   N        0.52445       -15.61570        -2.52002
   C       -2.57300       -14.92553        -1.49472
   N       -3.37417       -14.20700        -1.89314
   C        0.52739       -17.97143         0.00459
   C        1.14719       -19.13063         0.44378
   C        0.44167       -20.07773         1.17724
   C       -0.89463       -19.89607         1.50829
  Br        1.33117       -21.65506         1.74539
   H       -7.12068         3.34913        -0.85225
   H       -9.09451         3.71410        -2.26108
   H       -9.86884        -0.50601        -2.40064
   H       -4.40807        -1.15968         0.56665
   H       -7.36917        -3.52005         0.64847
   H       -7.10151        -5.90489         0.75568
   H       -2.75082        -7.43840         0.44215
   H       -2.49017        -9.83096         0.60972
   H       -6.43581       -12.22428         0.88282
   H       -6.17338       -14.62181         1.03296
   H       -4.77936       -16.57115         1.61353
   H        1.09057       -17.24261        -0.55524
   H        2.18792       -19.30254         0.21564
   H       -1.44356       -20.62702         2.08153
*
