# ORCA input file
# SCF done       -171.103056002369          0.000345325601
! CAM-B3LYP def2-SVP def2/J RIJCOSX Grid4 TightSCF
%maxcore 5000
%tddft
    Mode sTDDFT
    Ethresh 5.0
    maxcore 5000
end

%pal
  nprocs 6
  end
* xyz 0 1
   C       -7.22930        -1.52024        -0.01250
   O       -7.66091        -2.64164        -0.15617
   C       -8.02681        -0.28560         0.14768
   C       -7.18530         0.83758         0.06458
   C       -7.73133         2.10978         0.16917
   C       -9.09903         2.23695         0.35642
   C       -9.91073         1.11235         0.43404
   C       -9.38965        -0.16978         0.32586
  Br      -11.77831         1.33739         0.69203
   C       -5.80932         0.38672        -0.12655
   C       -4.71249         1.20030        -0.23439
   C       -4.76567         2.61039        -0.21149
   N       -4.74268         3.75789        -0.20916
   C       -3.38199         0.75584        -0.38721
   N       -2.27577         0.47293        -0.50856
   C       -5.81874        -1.06464        -0.12465
   C       -4.76068        -1.89491        -0.33851
   C       -4.77168        -3.30679        -0.12974
   C       -4.01279        -4.17527        -0.90507
   C       -4.06925        -5.55719        -0.77229
   C       -4.84933        -6.22490         0.17501
   C       -5.53949        -5.36239         1.08052
   C       -5.50153        -3.92741         0.91853
   N       -6.15148        -3.40028         1.93457
   O       -6.57886        -4.41644         2.67311
   N       -6.22480        -5.60028         2.17914
   C       -4.90716        -7.64329         0.20196
   S       -3.90194        -8.54099        -0.92293
   C       -4.47984       -10.08952        -0.38830
   C       -5.41122        -9.90053         0.61795
   C       -5.66330        -8.54244         0.96315
   C       -6.64000        -8.44591         1.98486
   C       -7.09531        -9.66376         2.38654
   C       -8.09667        -9.99158         3.40595
   O       -8.42060       -11.12092         3.68383
   O       -8.60033        -8.89546         3.97999
   C       -9.58071        -9.11819         4.98390
   S       -6.36498       -11.01045         1.55028
   C       -4.00785       -11.28750        -0.97199
   N       -4.43877       -12.53026        -0.56220
   C       -3.81024       -13.46702        -1.31879
   C       -3.67641       -14.83039        -1.53123
   C       -2.75534       -14.97024        -2.58387
   N       -2.34903       -13.72179        -3.00852
   C       -2.95903       -12.78876        -2.23795
   C       -3.08287       -11.42323        -2.01717
   C       -2.27818       -16.17766        -3.13329
   C       -1.54779       -16.30522        -4.27816
   C       -1.06445       -17.53146        -4.78330
   C       -0.78874       -18.69398        -4.11660
   C       -0.71631       -19.96299        -4.88384
   O       -0.68678       -20.08779        -6.08638
   C       -0.73964       -21.03510        -3.86195
   C       -0.69380       -20.45773        -2.58016
   C       -0.58259       -19.00530        -2.72093
   C       -0.11582       -18.16229        -1.74305
   C        0.16225       -18.56726        -0.42225
   N        0.38598       -18.83788         0.67087
   C        0.20967       -16.80899        -1.95466
   N        0.51750       -15.70911        -2.07465
   C       -0.73951       -21.27084        -1.45791
   C       -0.82139       -22.64428        -1.63248
   C       -0.85046       -23.19444        -2.90712
   C       -0.81239       -22.39996        -4.04574
  Br       -0.95308       -25.08230        -3.09557
   H       -7.12171         2.99602         0.10662
   H       -9.53927         3.21865         0.44103
   H      -10.01496        -1.04717         0.38255
   H       -3.83224        -1.48595        -0.71630
   H       -3.39368        -3.75979        -1.68659
   H       -3.48715        -6.15358        -1.45985
   H       -6.97935        -7.52012         2.40807
   H       -9.87936        -8.13454         5.33585
   H       -9.15997        -9.70857         5.80044
   H      -10.43551        -9.65475         4.56692
   H       -5.10163       -12.69368         0.17655
   H       -4.16483       -15.63653        -1.02219
   H       -1.60609       -13.56227        -3.66655
   H       -2.59270       -10.61241        -2.51708
   H       -2.56883       -17.07239        -2.59872
   H       -1.39184       -15.43899        -4.90669
   H       -0.94164       -17.59682        -5.86037
   H       -0.72397       -20.86154        -0.46091
   H       -0.86243       -23.29276        -0.77088
   H       -0.83798       -22.82401        -5.03748
*
