# ORCA input file
# SCF done       -187.379469161722          0.000591942613
! CAM-B3LYP def2-SVP def2/J RIJCOSX Grid4 TightSCF
%maxcore 5000
%tddft
    Mode sTDDFT
    Ethresh 5.0
    maxcore 5000
end

%pal
  nprocs 6
  end
* xyz 0 1
   C      -16.70178         4.16602         2.88613
   O      -16.22494         3.11057         3.28259
   C      -15.98627         5.45532         2.77790
   C      -16.91131         6.47048         2.48370
   C      -16.46915         7.77442         2.33051
   C      -15.11005         8.03782         2.44828
   C      -14.21999         7.01222         2.71877
   C      -14.63671         5.70173         2.90250
  Br      -12.36678         7.40533         2.81497
   C      -18.24003         5.86110         2.35470
   C      -19.39376         6.55645         2.08490
   C      -19.45687         7.95943         1.96488
   N      -19.57725         9.09727         1.86305
   C      -20.67306         5.99597         1.89434
   N      -21.74782         5.63249         1.71221
   C      -18.08166         4.43515         2.51124
   C      -19.10064         3.49253         2.41775
   C      -19.05108         2.11533         2.25186
   C      -18.03991         1.26072         1.82323
   C      -18.24365        -0.12807         1.61327
   C      -17.17039        -0.78653         1.08935
   C      -16.06869         0.06042         0.85332
   S      -16.43938         1.69887         1.33010
   C      -14.80115        -0.26933         0.39634
   C      -14.32922        -1.51710        -0.05979
   C      -13.01022        -1.50759        -0.40810
   C      -12.37236        -0.25692        -0.23239
   S      -13.52395         0.92034         0.36077
   C      -11.03608        -0.00579        -0.45807
   C      -10.33856         1.18327        -0.23733
   S      -11.09674         2.63633         0.36004
   C       -9.59474         3.53484         0.31573
   C       -8.54441         2.69324        -0.08428
   C       -8.96377         1.40476        -0.41357
   C       -7.97757         0.42809        -0.97219
   C       -7.35246         1.02539        -2.22232
   S       -6.47919         2.57921        -1.78523
   O       -6.89494         3.60418        -2.70598
   O       -5.07224         2.29219        -1.71442
   C       -7.09727         2.98657        -0.11134
   C       -9.65988         4.89024         0.67251
   C       -8.74850         5.88091         0.40019
   C       -8.91087         7.18458         0.87012
   C       -8.01429         8.20533         0.62941
   C       -8.01669         9.49703         1.20248
   C       -6.91986        10.24780         0.88878
   C       -6.01481         9.58904         0.03085
   S       -6.61047         8.00631        -0.39673
   C       -4.75218         9.98485        -0.38418
   C       -3.93587        11.03302         0.08439
   C       -2.64483        10.94656        -0.34947
   C       -2.37577         9.82909        -1.17999
   S       -3.85637         8.96460        -1.48389
   C       -1.13343         9.50441        -1.69591
   C       -0.73125         8.42834        -2.48698
   C       -1.31552         7.22204        -2.82285
   C       -0.84623         6.55772        -4.07027
   O        0.13717         6.83713        -4.71746
   C       -1.86621         5.52601        -4.36806
   C       -2.80485         5.49406        -3.32102
   C       -2.37740         6.42929        -2.28175
   C       -2.80324         6.39412        -0.97071
   C       -3.88289         5.62632        -0.50099
   N       -4.78617         5.07706        -0.04922
   C       -2.14885         7.10945         0.05118
   N       -1.61949         7.67423         0.89934
   C       -3.90793         4.66460        -3.40248
   C       -4.04574         3.85155        -4.51821
   C       -3.08999         3.86803        -5.52123
   C       -1.98486         4.70968        -5.47283
  Br       -3.30501         2.71550        -7.01408
   H      -17.14468         8.58508         2.11365
   H      -14.74730         9.04641         2.31984
   H      -13.94513         4.90181         3.11784
   H      -20.10706         3.88933         2.47076
   H      -20.00195         1.61161         2.38849
   H      -19.17779        -0.59884         1.86470
   H      -17.14151        -1.84311         0.89308
   H      -14.96674        -2.38028        -0.12077
   H      -12.47341        -2.36509        -0.77400
   H      -10.46121        -0.84416        -0.82927
   H       -8.45113        -0.52431        -1.21198
   H       -7.18850         0.23207        -0.23983
   H       -8.10048         1.28951        -2.96446
   H       -6.59676         0.37657        -2.65503
   H       -6.81604         4.01205         0.09395
   H       -6.53646         2.32438         0.54640
   H      -10.56918         5.18937         1.18037
   H       -7.88097         5.67597        -0.21085
   H       -9.75881         7.40717         1.50443
   H       -8.81146         9.81650         1.85293
   H       -6.73790        11.24330         1.25161
   H       -4.30103        11.78319         0.76219
   H       -1.86285        11.62651        -0.06234
   H       -0.36806        10.24709        -1.50415
   H        0.20588         8.58739        -3.01568
   H       -4.66814         4.63524        -2.64187
   H       -4.90859         3.20831        -4.58824
   H       -1.25005         4.73177        -6.26286
*
