# ORCA input file
# SCF done       -184.471144065471          0.000800429946
! CAM-B3LYP def2-SVP def2/J RIJCOSX Grid4 TightSCF
%maxcore 5000
%tddft
    Mode sTDDFT
    Ethresh 5.0
    maxcore 5000
end

%pal
  nprocs 6
  end
* xyz 0 1
   C       -1.64639        -1.42020         1.54434
   O       -1.37395        -2.59823         1.67801
   C       -0.71246        -0.28607         1.71498
   C       -1.38004         0.91673         1.42621
   C       -0.69662         2.11912         1.53246
   C        0.63489         2.09884         1.92134
   C        1.27410         0.89765         2.19647
   C        0.61160        -0.31881         2.09800
  Br        3.09942         0.92017         2.72378
   C       -2.75857         0.60731         1.04809
   C       -3.67467         1.51928         0.58848
   C       -3.41765         2.90053         0.46289
   N       -3.27010         4.03252         0.34226
   C       -4.97844         1.21584         0.14384
   N       -6.04534         1.04014        -0.24499
   C       -2.93806        -0.82341         1.19261
   C       -4.14275        -1.48102         1.10933
   C       -4.44818        -2.84312         1.20385
   S       -3.28193        -4.13957         1.26382
   C       -4.53657        -5.32967         1.19570
   C       -5.80581        -4.74995         1.11289
   C       -5.75970        -3.35774         1.16050
   C       -6.98822        -2.48055         1.28234
   N       -7.03527        -1.76088         2.54795
   C       -8.27358        -3.31232         1.18291
   C       -8.10470        -4.49908         0.24972
   C       -7.08773        -5.49150         0.83864
   N       -6.82852        -6.63207        -0.02657
   C       -4.12676        -6.68899         1.30594
   C       -4.88605        -7.70889         1.76180
   C       -4.43453        -9.05764         1.93558
   C       -3.27954        -9.61103         1.40753
   C       -2.88382       -10.93635         1.62711
   C       -3.60517       -11.82273         2.40599
   C       -4.79289       -11.30017         2.98071
   C       -5.21298        -9.94519         2.72895
   N       -6.34856        -9.76484         3.37304
   O       -6.62188       -10.91808         3.97933
   N       -5.70215       -11.85451         3.75810
   C       -3.18405       -13.16515         2.69797
   S       -3.56966       -13.83161         4.24550
   C       -2.64176       -15.27344         3.91520
   C       -2.08431       -15.21913         2.63987
   C       -2.42841       -14.04910         1.94261
   C       -2.14600       -13.91498         0.47064
   N       -3.14952       -13.08086        -0.17271
   C       -2.06798       -15.33648        -0.11256
   C       -0.95305       -16.11380         0.56525
   C       -1.20441       -16.29456         2.07178
   N        0.10053       -16.23344         2.73234
   C       -2.71185       -16.29195         4.89520
   C       -2.01472       -17.45621         5.00061
   C       -2.25429       -18.41387         6.01635
   C       -3.39968       -18.65735         6.71736
   C       -3.31595       -19.40026         8.00129
   O       -2.36426       -20.01114         8.42897
   C       -4.62620       -19.18618         8.65688
   C       -5.47833       -18.48926         7.78100
   C       -4.78193       -18.28035         6.51168
   C       -5.40263       -18.03075         5.31457
   C       -6.78732       -17.79972         5.18192
   N       -7.90592       -17.60117         5.01821
   C       -4.75641       -18.06221         4.06311
   N       -4.29734       -18.11349         3.01170
   C       -6.75428       -18.13893         8.19627
   C       -7.16249       -18.50008         9.47138
   C       -6.31166       -19.20412        10.31371
   C       -5.02646       -19.55697         9.92379
  Br       -6.91979       -19.68538        12.04786
   H       -1.17255         3.06350         1.32662
   H        1.17998         3.02581         2.01172
   H        1.10238        -1.25548         2.31211
   H       -5.00730        -0.85221         0.93896
   H       -6.98053        -1.73052         0.48181
   H       -6.93448        -2.40376         3.32578
   H       -6.31329        -1.05581         2.62177
   H       -9.08444        -2.66660         0.84889
   H       -8.53077        -3.67420         2.18078
   H       -7.75039        -4.15749        -0.72706
   H       -9.06215        -5.00478         0.10766
   H       -7.49225        -5.88755         1.78102
   H       -6.45414        -6.32022        -0.91627
   H       -7.69012        -7.13425        -0.20718
   H       -3.07944        -6.85657         1.08887
   H       -5.89896        -7.52822         2.08090
   H       -2.64499        -8.99799         0.78675
   H       -1.96101       -11.27185         1.18601
   H       -1.17351       -13.42465         0.32315
   H       -4.07040       -13.49092        -0.05597
   H       -2.96126       -13.01953        -1.16707
   H       -1.88067       -15.27763        -1.18740
   H       -3.02487       -15.84230         0.04269
   H       -0.01344       -15.56970         0.45013
   H       -0.83791       -17.09202         0.09721
   H       -1.73034       -17.25282         2.23755
   H        0.62904       -17.08043         2.55768
   H        0.01534       -16.09804         3.73205
   H       -3.42858       -16.08132         5.68180
   H       -1.17880       -17.66793         4.35405
   H       -1.40311       -19.01253         6.32736
   H       -7.42516       -17.58641         7.55870
   H       -8.15022       -18.23272         9.81414
   H       -4.36094       -20.09893        10.57761
*
