# ORCA input file
# SCF done       -173.470520317548          0.000872876149
! CAM-B3LYP def2-SVP def2/J RIJCOSX Grid4 TightSCF
%maxcore 5000
%tddft
    Mode sTDDFT
    Ethresh 5.0
    maxcore 5000
end

%pal
  nprocs 6
  end
* xyz 0 1
   C       -8.77901        10.21221        -1.16284
   C       -7.69726         9.49291        -0.78609
   C       -7.77940         8.20404        -0.22459
   C       -9.08389         7.56897        -0.01709
   C      -10.27361         8.13020        -0.33052
   S      -10.42501         9.69114        -1.02610
   C       -8.79298         6.30083         0.55664
   C       -7.41429         6.14441         0.70147
   C       -7.09384         4.88922         1.26614
   C       -8.20617         4.15208         1.52588
   S       -9.68552         4.93751         1.10248
   C       -6.76394         7.34109         0.21114
   C       -5.38167         7.63354         0.15070
   C       -4.36323         6.83813         0.56701
   C       -2.99470         7.17769         0.46243
   C       -1.91878         6.39249         0.85283
   C       -0.69522         7.00389         0.59478
   C       -0.82821         8.27227         0.00498
   S       -2.46629         8.70823        -0.22970
   C        0.46273         8.79654        -0.23570
   C        1.41865         7.85793         0.19805
   C        0.72410         6.70653         0.74207
   C        1.27875         5.58205         1.28074
   C        0.49323         4.52453         1.78343
   N       -0.14304         3.66648         2.20129
   C        2.67481         5.40297         1.37135
   N        3.80924         5.25495         1.45113
   C        2.73035         8.27808        -0.02211
   C        2.78492         9.52525        -0.61306
   S        1.18087        10.19690        -0.89887
   C        3.93747        10.24827        -1.00732
   C        4.00539        11.51109        -1.55641
   C        5.30517        11.93880        -1.84926
   C        5.57931        13.24851        -2.45459
   C        6.36550        14.18520        -1.79722
   C        6.60150        15.42555        -2.38430
   C        6.03886        15.73299        -3.61759
   C        5.25735        14.78844        -4.27697
   C        5.01918        13.54967        -3.68634
   O        4.68335        14.98595        -5.48771
   C        4.96958        16.17661        -6.18912
   O        7.40469        16.26874        -1.67886
   C        7.66196        17.55041        -2.20136
   C        6.26341        10.97671        -1.55000
   S        5.52167         9.55106        -0.85913
   C        7.64873        10.95139        -1.83624
   C        8.47890         9.83740        -1.75214
   C        9.77269        10.08090        -2.16926
   C        9.98425        11.38731        -2.60314
   S        8.51839        12.32471        -2.42824
   C       11.22011        11.91717        -3.00118
   C       11.54974        13.16239        -3.46674
   C       12.94935        13.62465        -3.31075
   O       13.92141        12.95205        -3.05345
   C       12.88841        15.09650        -3.48013
   C       11.58019        15.47116        -3.83548
   C       10.77173        14.26011        -3.98349
   C        9.62504        14.17424        -4.73511
   C        9.08019        12.95340        -5.18426
   N        8.65813        11.98912        -5.64207
   C        8.94248        15.28953        -5.24558
   N        8.33807        16.17765        -5.65559
   C       11.27747        16.81060        -4.02011
   C       12.28013        17.75354        -3.84881
   C       13.56718        17.36006        -3.51007
   C       13.89572        16.02429        -3.31931
  Br       14.91137        18.68712        -3.30024
   H       -8.69653        11.19673        -1.59095
   H       -6.72319         9.93975        -0.92767
   H      -11.21316         7.62839        -0.16217
   H       -6.10536         4.52573         1.47745
   H       -8.25408         3.16878         1.95145
   H       -5.11925         8.59368        -0.27778
   H       -4.56457         5.87376         1.00617
   H       -2.04190         5.42163         1.29739
   H        3.61372         7.71717         0.22550
   H        3.13469        12.11733        -1.73483
   H        6.78819        13.98014        -0.82690
   H        6.21669        16.69183        -4.07129
   H        4.41618        12.82905        -4.21419
   H        4.48286        16.06901        -7.15688
   H        6.04598        16.30471        -6.33357
   H        4.55865        17.05148        -5.67459
   H        8.35817        18.01707        -1.50616
   H        6.74818        18.15089        -2.25604
   H        8.11920        17.49755        -3.19396
   H        8.12148         8.88324        -1.40729
   H       10.55007         9.33791        -2.18544
   H       12.07555        11.27603        -2.80564
   H       10.28482        17.13441        -4.28552
   H       12.06064        18.80179        -3.98231
   H       14.89565        15.71491        -3.05760
*
