# ORCA input file
# SCF done       -177.065082925968          0.000657014965
! CAM-B3LYP def2-SVP def2/J RIJCOSX Grid4 TightSCF
%maxcore 5000
%tddft
    Mode sTDDFT
    Ethresh 5.0
    maxcore 5000
end

%pal
  nprocs 6
  end
* xyz 0 1
   C        8.41807        12.56766        -1.72479
   C        7.09746        12.51115        -1.44275
   C        6.39434        13.54770        -0.79617
   C        7.09384        14.76976        -0.38633
   C        8.40965        15.00940        -0.58108
   S        9.46738        13.89645        -1.34991
   C        6.09830        15.57858         0.22711
   C        4.86768        14.92257         0.20830
   C        3.85550        15.70611         0.80760
   C        4.33420        16.89786         1.25278
   S        6.02323        17.12795         0.96823
   C        5.04381        13.63831        -0.43540
   C        4.08361        12.62763        -0.68178
   C        2.77638        12.64464        -0.31604
   C        1.83249        11.60758        -0.56915
   C        2.08107        10.47338        -1.30631
   C        1.17896         9.43736        -1.53663
   C       -0.21218         9.54344        -1.07124
   C       -0.69128        10.56766        -0.33251
   S        0.26226        11.89970         0.17521
   C       -0.87084         8.38725        -1.57075
   C        0.03420         7.60653        -2.28568
   C       -0.56488         6.43726        -2.80483
   C       -1.88157         6.36423        -2.47783
   S       -2.44727         7.69875        -1.52978
   C        1.33289         8.23380        -2.25570
   C        2.46584         7.63321        -2.84986
   C        3.77428         7.96860        -2.67959
   C        4.88870         7.33836        -3.29697
   C        4.83181         6.24321        -4.12883
   C        5.92152         5.60774        -4.71734
   C        7.29089         6.07437        -4.44380
   C        7.59807         7.13998        -3.67470
   S        6.42212         8.11089        -2.88813
   C        8.14803         5.17351        -5.13237
   C        7.38385         4.21396        -5.78936
   C        8.18443         3.27846        -6.48260
   C        9.50760         3.54922        -6.33605
   S        9.83812         4.94134        -5.35964
   C        5.98296         4.47511        -5.55720
   C        4.98775         3.65473        -6.13271
   C        3.63347         3.79303        -6.10964
   C        2.70828         2.89144        -6.70476
   C        3.04079         1.82973        -7.51309
   C        2.14703         0.91438        -8.06359
   C        0.69518         1.10523        -7.91817
   C        0.12787         2.08427        -7.18215
   S        1.02808         3.24517        -6.29445
   C        0.09929         0.08548        -8.70886
   C        1.09467        -0.69226        -9.29781
   C        0.55789        -1.73134       -10.09003
   C       -0.80046        -1.71391       -10.08485
   S       -1.48420        -0.44755        -9.12091
   C        2.38577        -0.20417        -8.88534
   C        3.60702        -0.80558        -9.28041
   C        4.81179        -0.64355        -8.67428
   C        6.06221        -1.18320        -9.09325
   C        6.27932        -1.99216       -10.17916
   C        7.52176        -2.49954       -10.57267
   C        8.74381        -2.17859        -9.81755
   C        8.77979        -1.39622        -8.71920
   S        7.38636        -0.66041        -8.04410
   C        9.78765        -2.85596       -10.49840
   C        9.27159        -3.54816       -11.59718
   C       10.28990        -4.24460       -12.29017
   C       11.50860        -4.06462       -11.71893
   S       11.48729        -3.04783       -10.31880
   C        7.84930        -3.32769       -11.65315
   C        6.90850        -3.83741       -12.60704
   C        7.18123        -4.55977       -13.69477
   H        8.93711        11.76460        -2.21956
   H        6.56539        11.61588        -1.73332
   H        8.88616        15.92315        -0.26350
   H        2.82314        15.42847         0.91402
   H        3.78880        17.67987         1.74412
   H        4.46392        11.76431        -1.20987
   H        2.39384        13.48988         0.23484
   H        3.05368        10.40823        -1.76561
   H       -1.71639        10.61430        -0.00033
   H       -0.06144         5.68838        -3.38981
   H       -2.58090         5.59305        -2.73593
   H        2.22957         6.78709        -3.48193
   H        4.03347         8.76509        -1.99903
   H        3.84938         5.83787        -4.30352
   H        8.61420         7.45621        -3.49940
   H        7.81512         2.44562        -7.05422
   H       10.33849         3.00995        -6.74726
   H        5.39637         2.80624        -6.66624
   H        3.18038         4.62704        -5.59739
   H        4.08369         1.73152        -7.76708
   H       -0.94058         2.20051        -7.09137
   H        1.13696        -2.45423       -10.63610
   H       -1.46905        -2.37913       -10.59576
   H        3.53125        -1.47201       -10.12992
   H        4.86213        -0.06846        -7.76135
   H        5.41311        -2.25806       -10.76790
   H        9.69206        -1.17737        -8.18669
   H       10.14969        -4.85491       -13.16300
   H       12.44856        -4.47345       -12.03528
   H        5.87357        -3.59258       -12.40124
   H        8.18218        -4.83370       -13.97211
   H        6.39680        -4.89775       -14.34981
*
