# ORCA input file
# SCF done       -224.645386020978          0.000399148655
! CAM-B3LYP def2-SVP def2/J RIJCOSX Grid4 TightSCF
%maxcore 5000
%tddft
    Mode sTDDFT
    Ethresh 5.0
    maxcore 5000
end

%pal
  nprocs 6
  end
* xyz 0 1
   C       -0.32951        -1.66926        -0.87633
   C       -0.69885        -0.41836        -1.34661
   F       -0.86006         0.58116        -0.47310
   C       -0.90174        -0.17754        -2.70668
   F       -1.26454         1.04431        -3.11393
   C       -0.72778        -1.18803        -3.63833
   C       -0.34991        -2.43233        -3.17258
   C       -0.15539        -2.68533        -1.80276
   C        0.19235        -4.09489        -1.62819
   C        0.05205        -4.80714        -0.46857
   C       -0.27002        -4.22530         0.77535
   N       -0.50861        -3.79211         1.81071
   C        0.12393        -6.21507        -0.39874
   N        0.10022        -7.35684        -0.28983
   C        0.43969        -4.63991        -2.94997
   C       -0.07023        -3.66311        -3.94839
   O       -0.18469        -3.82876        -5.13932
   C        1.08305        -5.75969        -3.36570
   C        1.94569        -6.62960        -2.61604
   C        2.01940        -7.98725        -2.96721
   C        2.82775        -8.82608        -2.24367
   C        3.62250        -8.32627        -1.19512
   C        3.59742        -6.97477        -0.87578
   C        2.75168        -6.14187        -1.57587
   C        4.37526        -9.42246        -0.62624
   C        4.04472       -10.59739        -1.32243
   C        3.02375       -10.31455        -2.39722
   C        1.71216       -11.07754        -2.12455
   C        1.11913       -10.77211        -0.75469
   C        3.55391       -10.67889        -3.79567
   C        4.85451        -9.96236        -4.13916
   C        4.61537       -11.79928        -0.98112
   C        5.53404       -11.84825         0.07392
   C        5.85146       -10.67595         0.76596
   C        5.28130        -9.46485         0.42321
   C        6.10555       -13.13904         0.46392
   C        7.41147       -13.31359         0.90020
   O        8.17983       -12.19424         0.92446
   C        9.56571       -12.22312         0.64467
   C        7.90583       -14.59812         1.35254
   O        9.20559       -14.59003         1.76133
   C       10.00966       -15.73738         1.58250
   C        7.10815       -15.72429         1.37664
   C        5.81242       -15.58247         0.82788
   C        5.31095       -14.30772         0.38784
   N        4.07502       -14.50251        -0.03214
   O        3.82218       -15.80090         0.13311
   N        4.85252       -16.46982         0.65404
   C        7.41261       -17.00286         2.03328
   C        7.14166       -18.20153         1.37014
   C        7.29555       -19.39126         2.04256
   C        7.76078       -19.39877         3.36965
   C        8.03612       -18.21147         4.03072
   C        7.84712       -17.01759         3.36004
   C        7.87893       -20.77225         3.80843
   C        7.48236       -21.61160         2.75292
   C        7.03556       -20.79752         1.55910
   C        5.52484       -21.06682         1.35585
   C        4.82170       -20.19385         0.32454
   C        7.85173       -21.13706         0.30238
   C        9.35232       -20.98256         0.52503
   C        7.49363       -22.97509         2.90546
   C        7.96497       -23.52910         4.10547
   C        8.34617       -22.67991         5.15517
   C        8.29254       -21.30945         5.02034
   C        7.99435       -24.95899         4.25158
   C        8.84093       -25.71511         4.99261
   C        8.47753       -27.11548         5.33993
   O        7.59416       -27.78112         4.85606
   C        9.39592       -27.48672         6.44137
   C       10.32642       -26.45220         6.64775
   C       11.27503       -26.56026         7.65260
   C       11.27026       -27.70898         8.42889
   C       10.35084       -28.73694         8.21078
   C        9.39895       -28.63489         7.20933
   F       10.38864       -29.83016         8.98035
   F       12.16740       -27.83051         9.41246
   C       10.09327       -25.40308         5.65656
   C       11.00738       -24.46405         5.26453
   C       10.85591       -23.64911         4.12190
   N       10.82661       -23.00829         3.17065
   C       12.24769       -24.26106         5.90515
   N       13.25603       -24.04479         6.40794
   H       -0.18159        -1.80837         0.18230
   H       -0.88339        -1.00332        -4.68928
   H        0.96900        -5.98819        -4.42128
   H        1.40408        -8.35881        -3.77316
   H        4.22437        -6.58153        -0.08994
   H        2.73672        -5.08429        -1.35297
   H        1.91587       -12.14753        -2.19927
   H        0.98946       -10.81588        -2.90029
   H        1.81504       -11.05044         0.03338
   H        0.20229       -11.33989        -0.61614
   H        0.88579        -9.71513        -0.65536
   H        2.79303       -10.42614        -4.53685
   H        3.71301       -11.75807        -3.83547
   H        4.71457        -8.88351        -4.12931
   H        5.19367       -10.25578        -5.12998
   H        5.63147       -10.21319        -3.42033
   H        4.35992       -12.70263        -1.51049
   H        6.53654       -10.72516         1.59613
   H        5.53096        -8.57051         0.97422
   H        9.80399       -11.21069         0.31585
   H        9.80525       -12.92555        -0.15611
   H       10.15286       -12.46374         1.53272
   H       11.01678       -15.36741         1.38249
   H        9.66711       -16.33997         0.73878
   H       10.02754       -16.36004         2.48009
   H        6.82240       -18.17305         0.34138
   H        8.38191       -18.21443         5.05346
   H        8.01395       -16.07936         3.87020
   H        5.02902       -20.93336         2.32097
   H        5.41477       -22.11582         1.07103
   H        4.80255       -19.15301         0.63491
   H        3.79278       -20.53061         0.21785
   H        5.29913       -20.26772        -0.64901
   H        7.53944       -20.48015        -0.51056
   H        7.63191       -22.16495         0.00742
   H        9.59441       -19.95975         0.80733
   H        9.89093       -21.22251        -0.38881
   H        9.70119       -21.64563         1.31250
   H        7.19203       -23.63227         2.10353
   H        8.64588       -23.11338         6.09880
   H        8.57151       -20.66840         5.84282
   H        7.20271       -25.50987         3.75253
   H       12.00169       -25.79130         7.85902
   H        8.68759       -29.42746         7.04028
*
