# ORCA input file
# SCF done       -203.237914191943          0.000245640937
! CAM-B3LYP def2-SVP def2/J RIJCOSX Grid4 TightSCF
%maxcore 5000
%tddft
    Mode sTDDFT
    Ethresh 5.0
    maxcore 5000
end

%pal
  nprocs 6
  end
* xyz 0 1
   C        9.54726         4.10940         5.09513
   C       10.55606         4.67666         5.85871
   F       10.52102         4.53250         7.18757
   C       11.60475         5.38906         5.27457
   F       12.55303         5.92447         6.05158
   C       11.67477         5.54399         3.89955
   C       10.67652         4.97033         3.13664
   C        9.61099         4.25985         3.71849
   C        8.69464         3.83164         2.66111
   C        7.39381         3.44598         2.84596
   C        6.84312         3.11856         4.10171
   N        6.37016         2.79067         5.09463
   C        6.42085         3.43503         1.82547
   N        5.55921         3.51366         1.07182
   C        9.34533         4.10955         1.39544
   C       10.53140         4.96438         1.66264
   O       11.24683         5.49513         0.84676
   C        9.12790         3.63585         0.14200
   C        8.20477         2.63227        -0.29888
   C        7.50089         2.84963        -1.45870
   S        6.20148         1.77526        -1.70681
   C        6.62622         0.90908        -0.26131
   C        7.76034         1.43469         0.37614
   C        8.30841         0.74501         1.48063
   C        9.69578         1.06026         1.96157
   C        7.61271        -0.31467         2.05357
   C        8.08361        -0.90538         3.34458
   C        6.44837        -0.81593         1.43238
   C        5.97056        -0.19005         0.26668
   S        4.51395        -0.90323        -0.34507
   C        4.54063        -2.05064         0.92738
   C        5.60227        -1.93312         1.77895
   C        5.79652        -2.94676         2.78650
   S        4.35951        -3.64629         3.58427
   C        5.41410        -4.76323         4.34538
   C        6.73122        -4.53011         3.95541
   N        6.91381        -3.52549         3.09549
   C        7.66033        -5.51690         4.58901
   C        6.69283        -6.36033         5.36777
   C        5.39293        -5.88079         5.21494
   S        4.24625        -6.81385         6.08089
   C        5.51754        -7.88686         6.63648
   C        6.75886        -7.49664         6.16992
   C        5.15085        -9.01000         7.43715
   C        5.97774       -10.01630         7.77660
   C        5.56004       -11.19708         8.50018
   C        4.29962       -11.70438         8.36930
   S        4.04563       -13.21680         9.14430
   C        5.69145       -13.21139         9.69244
   C        6.39537       -12.05663         9.30860
   C        7.73213       -11.89775         9.73431
   C        8.44611       -10.59602         9.51276
   C        8.38299       -12.92801        10.40563
   C        9.86135       -12.83761        10.64821
   C        7.65962       -14.07016        10.81233
   C        6.31433       -14.19608        10.43949
   S        5.60213       -15.68905        10.98573
   C        7.07950       -16.15521        11.69028
   C        8.08630       -15.22746        11.57318
   C        9.32306       -15.32411        12.28039
   C       10.04288       -16.43709        12.59978
   C        9.82292       -17.80974        12.08461
   O        8.94702       -18.21098        11.35134
   C       10.93898       -18.61728        12.62654
   C       11.77029       -17.80987        13.41936
   C       12.87855       -18.36537        14.04202
   C       13.12411       -19.71647        13.85135
   C       12.29360       -20.50928        13.05740
   C       11.18548       -19.96220        12.43211
   F       12.57090       -21.80852        12.90085
   F       14.18696       -20.27059        14.44400
   C       11.25318       -16.44241        13.40662
   C       11.83444       -15.37667        14.04181
   C       11.38401       -14.04021        14.00136
   N       11.10194       -12.92626        14.00596
   C       13.00707       -15.46437        14.82394
   N       13.95276       -15.46472        15.47378
   H        8.75699         3.56902         5.59072
   H       12.48314         6.09504         3.44608
   H        9.71345         4.11736        -0.63571
   H        7.63349         3.67702        -2.12938
   H       10.23995         1.62641         1.21081
   H       10.23144         0.12927         2.13772
   H        9.70532         1.62829         2.89226
   H        8.73400        -0.22067         3.87948
   H        8.61134        -1.84200         3.17316
   H        7.22781        -1.12389         3.97789
   H        3.77440        -2.80111         0.96458
   H        8.39112        -5.02716         5.23562
   H        8.20878        -6.09452         3.84302
   H        7.66770        -8.01707         6.41040
   H        4.12196        -9.02667         7.77000
   H        7.00114        -9.99614         7.43777
   H        3.49623       -11.28741         7.79454
   H        9.01691       -10.60585         8.58332
   H        9.13445       -10.40049        10.33085
   H        7.73071        -9.77930         9.47511
   H       10.33653       -12.23738         9.87719
   H       10.30506       -13.83071        10.61333
   H       10.09058       -12.38812        11.61557
   H        7.12049       -17.07718        12.23464
   H        9.70484       -14.37728        12.63103
   H       13.55307       -17.79892        14.66251
   H       10.53967       -20.56858        11.81716
*
