# ORCA input file
# SCF done       -156.541519756246          0.000199669313
! CAM-B3LYP def2-SVP def2/J RIJCOSX Grid4 TightSCF
%maxcore 5000
%tddft
    Mode sTDDFT
    Ethresh 5.0
    maxcore 5000
end

%pal
  nprocs 6
  end
* xyz 0 1
   N       -1.43744        -0.30340        -0.74803
   C       -1.32623        -0.21403        -2.13383
   O       -2.02061         0.47546        -2.83676
   C       -0.22380        -1.11392        -2.48456
   C        0.27899        -1.69307        -1.36964
   C       -0.51711        -1.16511        -0.20259
   O       -0.41757        -1.40147         0.97527
   C        1.36475        -2.63593        -1.24850
   C        1.66546        -3.23113        -0.01184
   C        2.70049        -4.12776         0.07064
   C        3.46616        -4.45606        -1.06234
   C        3.17939        -3.87034        -2.28990
   C        2.13744        -2.97247        -2.37315
   C        4.47172        -5.41825        -0.67548
   C        4.32283        -5.69421         0.69619
   C        3.19520        -4.87914         1.28363
   C        2.09525        -5.77501         1.88073
   C        1.53851        -6.77571         0.87536
   C        3.70984        -3.90789         2.36347
   C        4.80903        -2.98346         1.85397
   C        5.14648        -6.59391         1.32360
   C        6.15527        -7.24066         0.59243
   C        6.30024        -6.94582        -0.77074
   C        5.46832        -6.04790        -1.40785
   C        7.01285        -8.19825         1.24743
   N        8.25626        -8.53686         0.75423
   C        8.81644        -9.45680         1.58529
   C        9.95354       -10.23624         1.80415
   C        9.69538       -10.97996         2.95541
   N        8.43568       -10.66654         3.42739
   C        7.88615        -9.72947         2.61121
   C        6.75933        -8.93132         2.40350
   C       10.49824       -11.94121         3.63732
   C       11.78717       -12.21730         3.35968
   C       12.61374       -13.18182         4.04932
   C       14.00858       -13.08246         3.92369
   C       14.82452       -13.96474         4.59000
   C       14.26528       -15.01055         5.34463
   C       12.88936       -15.13167         5.46492
   C       12.07800       -14.21249         4.83119
   C       15.33812       -15.84493         5.84812
   C       16.55781       -15.31074         5.40628
   C       16.33490       -14.02510         4.63977
   C       16.91803       -12.88846         5.51408
   C       16.65240       -11.47158         5.02340
   C       16.97284       -14.05376         3.24471
   C       16.49841       -15.24308         2.41745
   C       17.74899       -15.92486         5.71903
   C       17.71432       -17.08221         6.49369
   C       16.50930       -17.61264         6.94168
   C       15.31313       -16.99965         6.61381
   N       18.93210       -17.72258         6.83854
   C       20.08743       -17.05257         7.22483
   O       20.22156       -15.86116         7.31943
   C       21.09696       -18.11605         7.50308
   C       20.54019       -19.30258         7.28681
   C       19.12763       -19.09925         6.84860
   O       18.31807       -19.93557         6.54782
   H       -2.11406         0.20919        -0.20326
   H        0.08027        -1.25077        -3.50431
   H        1.08103        -2.97975         0.85762
   H        3.76250        -4.11348        -3.16569
   H        1.91457        -2.51032        -3.32183
   H        1.28693        -5.13797         2.24472
   H        2.50919        -6.31297         2.73623
   H        1.09983        -6.26034         0.02382
   H        0.76834        -7.38560         1.34188
   H        2.32524        -7.43288         0.51080
   H        4.08899        -4.49094         3.20544
   H        2.86980        -3.30866         2.71967
   H        5.66555        -3.55767         1.50703
   H        5.13860        -2.32093         2.65091
   H        4.44681        -2.37411         1.02897
   H        5.04048        -6.79948         2.37733
   H        7.05959        -7.45403        -1.34769
   H        5.59014        -5.84468        -2.46156
   H        8.69668        -8.09960        -0.03583
   H       10.84659       -10.27940         1.21450
   H        8.02275       -11.06339         4.25354
   H        5.85959        -8.90364         2.98438
   H       10.00600       -12.45316         4.45473
   H       12.28093       -11.65184         2.58096
   H       14.42159       -12.30411         3.29871
   H       12.45703       -15.93815         6.03865
   H       11.00645       -14.31354         4.91308
   H       17.99590       -13.04692         5.58938
   H       16.50032       -12.99421         6.51875
   H       17.05107       -11.31520         4.02447
   H       17.13643       -10.76377         5.69308
   H       15.58724       -11.25651         5.01790
   H       18.05869       -14.09360         3.35386
   H       16.72208       -13.13228         2.71766
   H       16.75586       -16.17981         2.90671
   H       16.96420       -15.22768         1.43454
   H       15.41868       -15.21141         2.28836
   H       18.69251       -15.52669         5.38160
   H       16.51149       -18.51002         7.53950
   H       14.37900       -17.41612         6.95834
   H       22.09318       -17.87875         7.82658
   H       20.96590       -20.28374         7.38404
*
