# ORCA input file
# SCF done       -187.439054832986          0.000489077111
! CAM-B3LYP def2-SVP def2/J RIJCOSX Grid4 TightSCF
%maxcore 5000
%tddft
    Mode sTDDFT
    Ethresh 5.0
    maxcore 5000
end

%pal
  nprocs 6
  end
* xyz 0 1
   C      -13.39223         1.26007        11.21464
   C      -13.08884         0.52630        10.09886
   C      -14.11305         0.03093         9.26844
   N      -14.99775        -0.34453         8.64540
   C      -11.68007         0.35343         9.94131
   C      -10.99395         0.97979        10.97531
   S      -12.01698         1.76710        12.11492
   S       -9.26621         0.84052        10.91079
   C       -9.45841        -0.08199         9.45695
   C      -10.76841        -0.27270         9.04009
   C      -10.82505        -1.02906         7.83289
   C      -12.03203        -1.30818         7.17407
   N      -13.03503        -1.49590         6.64910
   C       -9.56695        -1.39234         7.36811
   S       -8.28908        -0.79962         8.42004
   C       -9.19899        -2.14154         6.20836
   C       -7.89065        -2.21968         5.79016
   C       -7.44894        -2.92882         4.67768
   C       -8.38512        -3.66379         3.81815
   C       -9.71518        -3.72296         4.04115
   S      -10.50669        -2.95868         5.35783
   C       -7.58657        -4.20851         2.77707
   C       -6.25149        -3.83237         2.95565
   C       -5.40372        -4.40100         1.97607
   C       -6.10549        -5.14354         1.08359
   S       -7.81176        -5.20285         1.39432
   C       -6.15817        -3.00384         4.12728
   C       -4.98594        -2.38123         4.63583
   C       -3.92981        -1.95205         3.89803
   C       -3.90876        -1.75018         2.48628
   C       -2.69096        -1.83408         1.77390
   C       -2.62088        -1.75427         0.32805
   N       -1.42123        -1.83156        -0.26224
   C       -0.34917        -2.08292         0.45409
   C       -0.43342        -2.20696         1.87684
   N       -1.57876        -2.04967         2.48942
   C        0.74158        -2.47212         2.61690
   N        1.72760        -2.71203         3.15162
   C        0.90498        -2.21677        -0.18108
   N        1.94554        -2.37706        -0.63815
   C       -3.78769        -1.56344        -0.46302
   C       -4.96857        -1.31181         0.27169
   C       -5.03950        -1.41025         1.70824
   N       -6.26074        -1.12335         2.15680
   S       -7.22441        -0.79111         0.91865
   N       -6.14403        -0.98560        -0.26168
   C       -3.83761        -1.69856        -1.88538
   C       -2.82039        -2.30611        -2.59028
   C       -2.82828        -2.60338        -3.94125
   C       -3.84302        -2.05966        -4.83797
   C       -4.94540        -1.42736        -4.37135
   S       -5.30569        -1.18321        -2.70569
   C       -3.38580        -2.38198        -6.14740
   C       -2.18737        -3.10595        -6.07115
   C       -1.70492        -3.47341        -7.34780
   C       -2.52193        -3.02920        -8.33656
   S       -3.90937        -2.15845        -7.76687
   C       -1.84658        -3.29856        -4.69441
   C       -0.77341        -4.02100        -4.11944
   C       -0.89532        -4.52951        -2.86079
   C        0.10916        -4.95635        -1.96862
   C       -0.12708        -5.12026        -0.59857
   C       -1.39624        -4.90942        -0.05249
   N       -2.45192        -4.67768         0.34166
   C        1.05671        -5.40683         0.12632
   C        2.16260        -5.45933        -0.71492
   S        1.79354        -5.16894        -2.37386
   S        3.66827        -5.76602         0.08431
   C        2.80306        -5.81706         1.58792
   C        1.43399        -5.61332         1.48190
   C        0.80867        -5.65590         2.76420
   C       -0.55709        -5.43689         3.01499
   N       -1.66485        -5.23955         3.23656
   C        1.71492        -5.89227         3.76316
   S        3.33193        -6.06150         3.20795
   H      -14.37316         1.52896        11.55470
   H       -7.15345        -1.67648         6.36769
   H      -10.39296        -4.25670         3.39375
   H       -4.33492        -4.30049         1.93518
   H       -5.72129        -5.68169         0.23959
   H       -4.92469        -2.28171         5.71298
   H       -2.99992        -1.72252         4.40078
   H       -1.94106        -2.55475        -2.01853
   H       -5.71764        -1.05462        -5.02627
   H       -0.80351        -4.03135        -7.52483
   H       -2.40387        -3.15752        -9.39474
   H        0.14751        -4.13524        -4.67584
   H       -1.88625        -4.55521        -2.42549
   H        1.50679        -5.96075         4.81271
*
