# ORCA input file
# SCF done       -215.191391638119          0.000824046012
! CAM-B3LYP def2-SVP def2/J RIJCOSX Grid4 TightSCF
%maxcore 5000
%tddft
    Mode sTDDFT
    Ethresh 5.0
    maxcore 5000
end

%pal
  nprocs 6
  end
* xyz 0 1
   C       -1.97874         0.19801         3.95747
   C       -0.65159         0.31892         3.57259
   C        0.09362        -0.79317         3.20773
   C       -0.46531        -2.06227         3.22604
   C       -1.78920        -2.19454         3.60869
   C       -2.55424        -1.06272         3.97098
   C       -3.90746        -1.49292         4.30337
   C       -4.90215        -0.69556         4.80516
   C       -4.74707         0.67739         5.09102
   N       -4.69232         1.79508         5.34672
   C       -6.20130        -1.12537         5.14658
   N       -7.27449        -1.40197         5.44851
   C       -3.98503        -2.91246         3.98473
   C       -2.62162        -3.37611         3.76742
   C       -2.16272        -4.64806         3.98674
   C       -2.96930        -5.69126         4.48831
   N       -3.57778        -6.54768         4.95093
   C       -0.81621        -5.03515         3.83760
   N        0.26121        -5.41022         3.71098
   C       -5.15005        -3.61426         3.82784
   C       -5.36802        -4.81837         3.12793
   S       -4.32614        -5.43284         1.86329
   C       -5.38458        -6.77863         1.58106
   C       -6.48551        -6.72982         2.42064
   C       -6.48781        -5.62767         3.25993
   C       -5.08121        -7.75851         0.60826
   C       -4.01311        -7.80290        -0.26778
   C       -4.01126        -8.92982        -1.08268
   C       -5.07407        -9.78129        -0.84517
   S       -6.10445        -9.15519         0.40891
   C       -5.36317       -11.02403        -1.45975
   S       -4.39228       -11.65266        -2.75936
   C       -5.35991       -13.09957        -2.84906
   C       -6.37793       -13.05962        -1.91059
   C       -6.38132       -11.90345        -1.14110
   C       -5.04154       -14.10713        -3.79291
   C       -5.65560       -15.31640        -3.85667
   C       -5.36108       -16.33230        -4.78955
   S       -4.20440       -16.15816        -6.09934
   C       -4.46271       -17.76940        -6.71538
   C       -5.40981       -18.42432        -5.92265
   C       -5.90215       -17.60705        -4.85908
   N       -6.81339       -18.33032        -4.15750
   C       -6.90665       -19.57034        -4.74540
   N       -7.78747       -20.52266        -4.20614
   O       -8.42993       -20.17177        -3.22675
   O       -7.85147       -21.61336        -4.73575
   C       -6.06393       -19.67178        -5.83164
   C       -3.79300       -18.24709        -7.85652
   S       -4.05760       -19.87115        -8.42900
   C       -2.97694       -19.62481        -9.76874
   C       -2.44801       -18.34523        -9.74558
   C       -2.89952       -17.57866        -8.67905
   C       -2.75376       -20.65871       -10.71328
   C       -2.03298       -20.60764       -11.89316
   C       -2.04578       -21.80591       -12.59991
   C       -2.76812       -22.80602       -11.97698
   S       -3.44677       -22.23664       -10.47905
   C       -2.99664       -24.13424       -12.41099
   S       -2.44912       -24.69643       -13.95806
   C       -3.12364       -26.28170       -13.67376
   C       -3.72902       -26.33504       -12.42718
   C       -3.66262       -25.13995       -11.72810
   C       -3.05194       -27.26583       -14.68220
   C       -3.44456       -28.56180       -14.53505
   C       -3.39431       -29.54955       -15.54589
   C       -3.45852       -29.38401       -16.90451
   C       -2.98931       -30.36725       -17.87410
   C       -2.70138       -31.68804       -17.65185
   C       -2.84901       -32.37275       -16.42715
   N       -2.94014       -33.00474       -15.47245
   C       -2.24668       -32.57684       -18.64936
   N       -1.87829       -33.35600       -19.40755
   C       -2.87158       -29.67679       -19.15234
   C       -3.39247       -28.37061       -19.01506
   C       -3.38119       -27.48949       -20.08376
   C       -2.85306       -27.91997       -21.29143
   C       -2.35110       -29.20586       -21.43180
   C       -2.35368       -30.09554       -20.36794
   C       -3.90295       -28.21896       -17.66068
   C       -4.84305       -27.29965       -17.27569
   C       -5.29443       -26.24480       -18.09505
   N       -5.68713       -25.35391       -18.70334
   C       -5.53864       -27.32666       -16.04946
   N       -6.17653       -27.30825       -15.09538
   H       -2.54135         1.07422         4.23438
   H       -0.19494         1.29670         3.55531
   H        1.12248        -0.67170         2.90519
   H        0.11934        -2.92040         2.93613
   H       -6.05560        -3.17372         4.22555
   H       -7.25392        -7.48190         2.40168
   H       -7.25850        -5.41959         3.98039
   H       -3.26333        -7.03207        -0.29945
   H       -3.26023        -9.14075        -1.82308
   H       -7.10157       -13.84543        -1.79487
   H       -7.09457       -11.69593        -0.36281
   H       -4.24565       -13.88768        -4.49213
   H       -6.43157       -15.55977        -3.14378
   H       -7.35052       -18.06719        -3.34658
   H       -5.95046       -20.53252        -6.45783
   H       -1.75344       -17.98856       -10.48382
   H       -2.60240       -16.56153        -8.49469
   H       -1.52501       -19.72261       -12.22973
   H       -1.54792       -21.95783       -13.54131
   H       -4.22283       -27.21397       -12.05664
   H       -4.08378       -24.98504       -10.75038
   H       -2.62754       -26.94617       -15.62628
   H       -3.73233       -28.90825       -13.55274
   H       -3.23687       -30.55718       -15.18383
   H       -3.76175       -26.48590       -19.98465
   H       -2.83306       -27.24302       -22.13173
   H       -1.94804       -29.52121       -22.38202
   H       -1.95414       -31.08793       -20.49516
*
