# ORCA input file
# SCF done       -216.947043317986          0.000462042883
! CAM-B3LYP def2-SVP def2/J RIJCOSX Grid4 TightSCF
%maxcore 5000
%tddft
    Mode sTDDFT
    Ethresh 5.0
    maxcore 5000
end

%pal
  nprocs 6
  end
* xyz 0 1
   C      -11.48912       -11.75190         5.71288
   C      -12.30285       -12.64687         5.03265
   C      -11.84267       -13.32659         3.91483
   C      -10.54987       -13.13722         3.44774
   C       -9.73105       -12.24508         4.11729
   C      -10.19968       -11.54420         5.25131
   C       -9.13937       -10.66527         5.73306
   C       -9.18974        -9.90027         6.87088
   C      -10.28858        -9.86641         7.75432
   N      -11.14324        -9.78689         8.51697
   C       -8.15574        -9.07031         7.34871
   N       -7.35875        -8.37635         7.80060
   C       -8.05555       -10.74805         4.76695
   C       -8.34468       -11.86704         3.89053
   C       -7.41246       -12.61389         3.21324
   C       -6.02447       -12.39308         3.31949
   N       -4.88820       -12.26818         3.43255
   C       -7.72560       -13.74092         2.42983
   N       -7.92659       -14.65398         1.76322
   C       -7.01314        -9.85351         4.69547
   C       -6.19788        -9.50972         3.59684
   C       -5.04370        -8.77196         3.79935
   C       -4.18317        -8.34526         2.80326
   C       -4.46034        -8.60886         1.38757
   C       -5.55400        -9.26319         0.94255
   S       -6.76625        -9.90207         1.96914
   C       -3.38161        -8.01483         0.68004
   C       -2.49470        -7.40602         1.57864
   C       -1.38868        -6.83253         0.90656
   C       -1.47244        -7.00224        -0.43732
   S       -2.88316        -7.86677        -0.95306
   C       -2.98568        -7.59802         2.91284
   C       -2.42893        -7.14546         4.13592
   C       -1.47991        -6.18912         4.26384
   C       -0.93393        -5.71431         5.50856
   C       -0.27457        -4.47262         5.52497
   C        0.21728        -3.97729         6.70574
   C        0.09543        -4.71711         7.89587
   C       -0.52778        -5.95811         7.88931
   C       -1.04059        -6.44115         6.70439
   C        0.68994        -3.95950         8.97303
   C        1.16937        -2.74259         8.45340
   C        0.91389        -2.66205         6.96594
   C        2.23042        -2.55481         6.17441
   C        3.18984        -3.70257         6.46542
   C        0.00195        -1.47056         6.61761
   C       -1.32303        -1.49966         7.37013
   C        1.76419        -1.81591         9.27150
   C        1.89915        -2.09132        10.64269
   C        1.43903        -3.32068        11.14136
   C        0.83157        -4.24977        10.32312
   C        2.48131        -1.15966        11.57497
   C        2.72841         0.14666        11.33866
   C        3.26519         1.08139        12.28065
   C        3.89286         0.75564        13.46245
   C        4.36785         1.67836        14.39006
   C        4.19233         3.11536        14.19292
   C        3.64240         3.66922        13.08730
   S        3.04350         2.74595        11.77807
   C        4.71039         3.72684        15.36731
   C        5.18164         2.75508        16.25099
   C        5.70411         3.33744        17.42724
   C        5.61300         4.69376        17.40308
   S        4.89715         5.32598        15.96382
   C        4.99408         1.45511        15.64515
   C        5.32811         0.19103        16.13997
   C        5.81454        -0.09187        17.39495
   C        6.19651        -1.34541        17.88179
   C        5.99044        -2.61914        17.37364
   C        6.85367        -3.74541        17.68329
   C        7.81094        -3.83219        18.66424
   C        8.14028        -2.83614        19.60581
   N        8.48303        -2.09229        20.41235
   C        8.60220        -4.97555        18.89813
   N        9.28202        -5.86607        19.15159
   C        6.53785        -4.80233        16.72667
   C        5.44514        -4.38388        15.93683
   C        4.95521        -5.19129        14.92492
   C        5.55974        -6.42047        14.70489
   C        6.62530        -6.83827        15.48671
   C        7.12454        -6.03676        16.50376
   C        5.00788        -3.08069        16.42001
   C        3.76353        -2.53828        16.18497
   C        2.86856        -3.01216        15.21476
   N        2.12110        -3.29830        14.38847
   C        3.22064        -1.45531        16.90223
   N        2.70583        -0.60230        17.47338
   H      -11.86600       -11.23239         6.57837
   H      -13.31101       -12.81188         5.38106
   H      -12.49708       -14.01250         3.39886
   H      -10.20223       -13.66645         2.57519
   H       -6.82819        -9.25511         5.57782
   H       -4.79899        -8.54990         4.82947
   H       -5.74913        -9.43095        -0.10502
   H       -0.56110        -6.33574         1.37812
   H       -0.77772        -6.67123        -1.18438
   H       -2.84930        -7.58601         5.02909
   H       -1.13358        -5.67590         3.37775
   H       -0.18382        -3.90951         4.60656
   H       -0.61411        -6.53484         8.79775
   H       -1.51607        -7.40965         6.69437
   H        2.71277        -1.60729         6.42398
   H        1.99677        -2.53873         5.10769
   H        3.45175        -3.72594         7.52093
   H        4.10294        -3.58309         5.88681
   H        2.73842        -4.65697         6.20346
   H       -0.19136        -1.48058         5.54276
   H        0.53161        -0.54463         6.85185
   H       -1.87805        -2.40577         7.13765
   H       -1.93117        -0.64282         7.08961
   H       -1.15643        -1.46651         8.44450
   H        2.13568        -0.88791         8.86402
   H        1.54893        -3.52486        12.19526
   H        0.47189        -5.18370        10.72747
   H        2.67047        -1.56699        12.55907
   H        2.45383         0.57810        10.38522
   H        4.01407        -0.29759        13.67094
   H        3.54137         4.73518        12.95925
   H        6.12866         2.80783        18.25940
   H        5.92839         5.38304        18.16174
   H        5.22422        -0.62478        15.43673
   H        5.98864         0.73530        18.06472
   H        6.82222        -1.30179        18.76381
   H        4.12960        -4.87786        14.30670
   H        5.19297        -7.05698        13.91393
   H        7.07872        -7.80042        15.30301
   H        7.95483        -6.37964        17.09819
*
