# ORCA input file
# SCF done       -183.885886668304          0.000983711657
! CAM-B3LYP def2-SVP def2/J RIJCOSX Grid4 TightSCF
%maxcore 5000
%tddft
    Mode sTDDFT
    Ethresh 5.0
    maxcore 5000
end

%pal
  nprocs 6
  end
* xyz 0 1
   C        1.61284       -14.97590         1.20794
   C        1.30947       -16.04445         0.37575
   C        0.27456       -15.96546        -0.54412
   C       -0.48552       -14.81063        -0.66527
   C       -0.19471       -13.74155         0.16306
   C        0.85418       -13.82156         1.10736
   C        0.92126       -12.56307         1.84236
   C        1.90325       -12.19746         2.72798
   C        2.99077       -13.02040         3.08651
   N        3.89572       -13.63861         3.42829
   C        1.99924       -10.93980         3.35641
   N        2.14291        -9.92921         3.88504
   C       -0.23860       -11.78363         1.43858
   C       -0.78154       -12.41298         0.24929
   C       -1.46072       -11.76529        -0.75214
   C       -1.67335       -10.37154        -0.74355
   N       -1.80006        -9.23045        -0.77466
   C       -1.90921       -12.39257        -1.92983
   N       -2.31042       -12.86519        -2.89615
   C       -0.73921       -10.72637         2.15860
   C       -2.03493       -10.16836         2.17496
   C       -2.23644        -8.95453         2.81343
   C       -3.44784        -8.29738         2.92913
   C       -4.69515        -8.93574         2.48777
   C       -4.75293       -10.13713         1.87389
   S       -3.38132       -11.09435         1.50752
   C       -5.73545        -8.05046         2.88056
   C       -5.18659        -6.93774         3.52522
   C       -6.17828        -6.01933         3.93874
   C       -7.42272        -6.45030         3.60959
   S       -7.44628        -7.97655         2.78586
   C       -3.75692        -7.05525         3.54013
   C       -2.90065        -6.07193         4.08268
   C       -1.57525        -5.90966         3.81334
   C       -0.76326        -4.93631         4.43487
   O       -1.25636        -4.13384         5.41162
   C       -0.25009        -3.33069         5.83023
   C        0.90356        -3.61289         5.11240
   C        0.58649        -4.63729         4.21787
   C        1.50310        -5.27889         3.24241
   C       -0.52811        -2.38824         6.85811
   C        0.43772        -1.58946         7.43302
   C        0.18484        -0.65019         8.42528
   C       -1.17264        -0.41053         8.91439
   C       -2.26356        -1.09526         8.50041
   S       -2.21599        -2.33826         7.32280
   C       -1.05458         0.65295         9.85099
   C        0.27437         1.07161         9.94276
   C        0.42454         2.11480        10.88384
   C       -0.76164         2.45385        11.45467
   S       -2.10629         1.52869        10.88723
   C        1.07474         0.25533         9.06006
   C        2.45241         0.30248         8.81312
   C        3.31343         1.29417         9.21453
   C        4.69905         1.34489         9.01502
   C        5.53879         0.58024         8.22367
   C        6.95869         0.42558         8.49930
   C        7.74768         1.19076         9.32092
   C        7.34092         2.32558        10.05247
   N        7.10690         3.26043        10.67904
   C        9.12661         0.97187         9.52057
   N       10.24975         0.85941         9.73269
   C        7.41948        -0.72559         7.72927
   C        6.36124        -1.17212         6.90812
   C        6.52395        -2.27053         6.08150
   C        7.74688        -2.92521         6.08103
   C        8.78913        -2.48499         6.88220
   C        8.63863        -1.38237         7.71127
   C        5.22734        -0.27884         7.10208
   C        4.18234        -0.13727         6.21690
   C        3.89396        -1.04849         5.18897
   N        3.55147        -1.80315         4.39101
   C        3.27850         0.94229         6.23029
   N        2.53426         1.81483         6.17420
   H        2.41997       -15.05660         1.91743
   H        1.88959       -16.95154         0.45033
   H        0.05476       -16.81271        -1.17556
   H       -1.29050       -14.75849        -1.38064
   H       -0.07351       -10.28777         2.89033
   H       -1.35640        -8.50154         3.24620
   H       -5.68193       -10.58591         1.55903
   H       -5.98570        -5.09380         4.44986
   H       -8.35869        -5.96163         3.79757
   H       -3.36598        -5.35743         4.75029
   H       -1.08004        -6.50683         3.06483
   H        1.85184        -3.12137         5.19220
   H        2.42943        -4.71485         3.18528
   H        1.04994        -5.31743         2.25371
   H        1.73354        -6.29942         3.54858
   H        1.44547        -1.71494         7.06533
   H       -3.25066        -0.89714         8.88687
   H        1.34702         2.59799        11.14657
   H       -0.93798         3.20959        12.19487
   H        2.85446        -0.54637         8.27695
   H        2.90434         2.10717         9.79419
   H        5.20358         2.05842         9.65374
   H        5.72112        -2.62605         5.45624
   H        7.88473        -3.78894         5.44856
   H        9.73357        -3.00711         6.86535
   H        9.46068        -1.05753         8.32701
*
