# ORCA input file
# SCF done       -178.908069216655          0.000775907832
! CAM-B3LYP def2-SVP def2/J RIJCOSX Grid4 TightSCF
%maxcore 5000
%tddft
    Mode sTDDFT
    Ethresh 5.0
    maxcore 5000
end

%pal
  nprocs 6
  end
* xyz 0 1
   C      -12.05009         0.70112         0.85923
   C      -13.23388         0.05666         0.52900
   C      -13.29546        -1.32574         0.43921
   C      -12.17446        -2.10593         0.68370
   C      -10.98673        -1.47354         1.00709
   C      -10.91976        -0.06443         1.09360
   C       -9.55257         0.32237         1.42574
   C       -9.11782         1.60504         1.65870
   C       -9.95058         2.74199         1.63569
   N      -10.56678         3.71116         1.63693
   C       -7.79545         1.96824         1.97641
   N       -6.73212         2.32579         2.23038
   C       -8.76358        -0.89470         1.43232
   C       -9.68042        -2.01313         1.35362
   C       -9.43182        -3.29400         1.78329
   C       -8.26403        -3.64508         2.48915
   N       -7.35326        -3.92754         3.12978
   C      -10.32110        -4.37012         1.62365
   N      -10.97711        -5.29954         1.45938
   C       -7.38423        -0.91955         1.38018
   C       -6.57303        -1.95959         0.91291
   O       -7.13993        -3.02766         0.27485
   C       -6.15722        -3.83813        -0.15846
   C       -4.91304        -3.30340         0.18021
   C       -5.16859        -2.10314         0.87781
   O       -4.19126        -1.33733         1.39108
   C       -4.47915        -0.37969         2.39493
   O       -3.75212        -3.91466        -0.16247
   C       -2.56607        -3.47672         0.47752
   C       -6.47439        -5.06118        -0.79204
   N       -5.49627        -5.87056        -1.32321
   C       -6.09177        -6.99051        -1.80503
   C       -5.85768        -8.20614        -2.43393
   C       -7.11130        -8.82289        -2.56647
   N       -8.08758        -8.00148        -2.03765
   C       -7.49130        -6.87625        -1.56775
   C       -7.73319        -5.66204        -0.93973
   C       -7.34874       -10.08427        -3.15392
   C       -8.55097       -10.70096        -3.31947
   C       -8.65410       -11.96019        -3.96953
   O       -7.48832       -12.52643        -4.37762
   C       -7.76539       -13.68342        -5.02956
   C       -9.15520       -13.89391        -5.01375
   C       -9.72253       -12.78512        -4.34245
   O      -11.06447       -12.67577        -4.15533
   C      -11.60772       -11.46835        -3.67771
   O       -9.69954       -14.98053        -5.56475
   C      -11.10895       -15.10065        -5.60174
   C       -6.79464       -14.53062        -5.56985
   C       -5.43402       -14.33231        -5.64731
   C       -4.46027       -15.40211        -5.77954
   C       -4.68364       -16.68749        -6.20216
   C       -5.91966       -17.19998        -6.64727
   N       -6.88342       -17.69396        -7.03036
   C       -3.68305       -17.67691        -6.28970
   N       -2.92105       -18.53123        -6.38276
   C       -3.17400       -14.85393        -5.36120
   C       -3.32960       -13.47398        -5.09962
   C       -2.25751       -12.71125        -4.66917
   C       -1.02922       -13.33191        -4.49590
   C       -0.87195       -14.68431        -4.75949
   C       -1.93799       -15.45752        -5.19627
   C       -4.70029       -13.10248        -5.41877
   C       -5.13314       -11.83025        -5.69974
   C       -4.41924       -10.66511        -5.36928
   N       -3.91805        -9.67910        -5.05579
   C       -6.31989       -11.55224        -6.40888
   N       -7.23210       -11.28443        -7.05266
   H      -12.02309         1.77619         0.92592
   H      -14.11879         0.64457         0.33854
   H      -14.22678        -1.80375         0.17592
   H      -12.23196        -3.18009         0.60981
   H       -6.87509         0.00048         1.60823
   H       -4.82771         0.56286         1.96653
   H       -3.53162        -0.20404         2.90361
   H       -5.21293        -0.76111         3.10778
   H       -1.77534        -4.11598         0.08882
   H       -2.63793        -3.59736         1.56061
   H       -2.34923        -2.43376         0.24207
   H       -4.51657        -5.64092        -1.30618
   H       -4.93073        -8.61427        -2.78292
   H       -9.06880        -8.21271        -2.00082
   H       -8.66388        -5.25058        -0.60668
   H       -6.46220       -10.58750        -3.50868
   H       -9.45604       -10.23288        -2.97374
   H      -12.68740       -11.58792        -3.76140
   H      -11.28867       -10.61834        -4.28670
   H      -11.34805       -11.30237        -2.62787
   H      -11.30149       -16.05576        -6.08671
   H      -11.55719       -14.29294        -6.18364
   H      -11.53437       -15.10011        -4.59651
   H       -7.19546       -15.48643        -5.87612
   H       -2.36884       -11.65923        -4.46150
   H       -0.18600       -12.75187        -4.15274
   H        0.09369       -15.14664        -4.62235
   H       -1.79542       -16.50655        -5.39615
*
