# ORCA input file
# SCF done       -194.633843604053          0.004510722566
! CAM-B3LYP def2-SVP def2/J RIJCOSX Grid4 TightSCF
%maxcore 5000
%tddft
    Mode sTDDFT
    Ethresh 5.0
    maxcore 5000
end

%pal
  nprocs 6
  end
* xyz 0 1
   C       -4.66614        -5.89103        -7.15668
   C       -3.32232        -6.16688        -7.36314
   C       -2.70474        -7.23725        -6.73128
   C       -3.41346        -8.07066        -5.87828
   C       -4.74968        -7.79419        -5.65165
   C       -5.38149        -6.69816        -6.28606
   C       -6.76335        -6.62406        -5.83229
   C       -7.74814        -5.82163        -6.34102
   C       -7.55517        -4.90644        -7.39891
   N       -7.45880        -4.13416        -8.24197
   C       -9.08770        -5.83170        -5.90466
   N      -10.19068        -5.78186        -5.58780
   C       -6.87787        -7.56819        -4.72019
   C       -5.74375        -8.47850        -4.84222
   C       -5.76349        -9.80571        -4.52263
   C       -6.94774       -10.45673        -4.11297
   N       -7.92053       -11.00559        -3.85515
   C       -4.66934       -10.67281        -4.72039
   N       -3.80563       -11.41640        -4.84836
   C       -7.71483        -7.35641        -3.66701
   C       -7.64078        -7.77799        -2.31510
   S       -6.56382        -8.99310        -1.67915
   C       -7.00977        -8.61456        -0.07610
   C       -7.92675        -7.60324         0.00258
   C       -8.29971        -7.12794        -1.26970
   C       -9.14363        -5.89790        -1.44866
   C       -9.79461        -5.44057        -0.13794
   C       -8.83238        -5.55086         1.03779
   C       -8.46549        -7.01651         1.26678
   N       -8.25138        -4.87734        -1.98147
   C       -8.50241        -4.11715        -3.05832
   C       -7.41680        -3.69071        -3.86780
   C       -7.59964        -2.80962        -4.99837
   N       -6.51524        -2.43419        -5.71032
   C       -5.35836        -2.97371        -5.43688
   C       -5.20839        -3.94251        -4.38810
   N       -6.22634        -4.23762        -3.60946
   C       -3.98919        -4.62817        -4.19795
   N       -3.01112        -5.21548        -4.08324
   C       -4.22781        -2.61336        -6.21229
   N       -3.29319        -2.37159        -6.82800
   C       -8.87128        -2.38363        -5.39188
   C       -9.95378        -2.86241        -4.63040
   C       -9.78348        -3.72828        -3.48718
   N      -10.95525        -4.07197        -2.94394
   S      -12.13424        -3.37548        -3.76629
   N      -11.24446        -2.58742        -4.84321
   C       -9.10659        -1.59784        -6.59166
   S      -10.24551        -2.16688        -7.76578
   C       -9.96682        -0.78898        -8.74863
   C       -9.06237         0.07185        -8.20754
   C       -8.55575        -0.39914        -6.97036
   C       -7.62701         0.40799        -6.10027
   C       -7.14434         1.67157        -6.80822
   C       -8.23579         2.32526        -7.65379
   C       -8.63557         1.38224        -8.78635
   N       -8.34413         0.64350        -4.85014
   C       -8.75125         1.77917        -4.33264
   C       -9.58693         1.94245        -3.24024
   C      -10.22730         3.20832        -2.93311
   C       -9.88369         4.45725        -3.38755
   C       -8.80265         4.74652        -4.24410
   N       -7.93587         5.04269        -4.93930
   C      -10.55303         5.64472        -3.02621
   N      -11.04730         6.65119        -2.77944
   C      -11.32376         2.91546        -2.01801
   C      -11.29541         1.53888        -1.70639
   C      -12.25094         0.98655        -0.86930
   C      -13.23392         1.81348        -0.34741
   C      -13.25743         3.16783        -0.64559
   C      -12.30409         3.73286        -1.47979
   C      -10.14596         0.93755        -2.36999
   C       -9.63215        -0.30380        -2.05432
   C      -10.25694        -1.24930        -1.22038
   N      -10.69181        -2.10321        -0.58497
   C       -8.35455        -0.77033        -2.39863
   N       -7.30540        -1.20207        -2.59657
   H       -5.12866        -5.05650        -7.66015
   H       -2.75120        -5.52698        -8.01719
   H       -1.65589        -7.42496        -6.90252
   H       -2.92566        -8.89763        -5.38782
   H       -8.48292        -6.61247        -3.83278
   H       -6.55840        -9.15291         0.73417
   H       -9.93982        -6.05943        -2.18379
   H      -10.67054        -6.06234         0.04970
   H      -10.13221        -4.41237        -0.26925
   H       -9.29983        -5.14412         1.93456
   H       -7.93098        -4.96921         0.83528
   H       -9.35957        -7.57125         1.56671
   H       -7.72963        -7.11696         2.06631
   H       -7.26115        -5.01104        -1.80879
   H      -10.49241        -0.68902        -9.67714
   H       -6.75971        -0.21336        -5.83698
   H       -6.32572         1.37969        -7.46877
   H       -6.73665         2.37556        -6.08135
   H       -7.86546         3.26671        -8.06032
   H       -9.11560         2.54690        -7.04571
   H       -7.78001         1.22506        -9.44965
   H       -9.44378         1.80921        -9.38194
   H       -8.65506        -0.22345        -4.42875
   H       -8.44816         2.67029        -4.86013
   H      -12.24640        -0.06470        -0.63070
   H      -13.98980         1.39510         0.29954
   H      -14.02978         3.79382        -0.22576
   H      -12.33943         4.78658        -1.70113
*
