# ORCA input file
# SCF done       -227.911224546352          0.000552752842
! CAM-B3LYP def2-SVP def2/J RIJCOSX Grid4 TightSCF
%maxcore 5000
%tddft
    Mode sTDDFT
    Ethresh 5.0
    maxcore 5000
end

%pal
  nprocs 6
  end
* xyz 0 1
   C       -1.06980        -1.98878        -4.95269
   C       -0.95903        -1.92863        -3.59055
   C       -1.07144        -0.73566        -2.84603
   N       -1.17627         0.20365        -2.19563
   C       -0.63603        -3.03620        -2.77784
   N       -0.30951        -3.87891        -2.07087
   C       -1.12706        -0.83895        -5.85094
   C       -0.75132        -1.25105        -7.14321
   C       -0.67765        -0.35907        -8.19393
   C       -0.99613         0.97179        -7.95354
   C       -1.38308         1.38633        -6.67298
   C       -1.44713         0.48767        -5.61422
  Cl       -1.78795         3.03121        -6.39581
  Cl       -0.91653         2.11117        -9.23490
   C       -0.49493        -2.70837        -7.14448
   O       -0.10129        -3.39377        -8.05704
   C       -0.88511        -3.16733        -5.78171
   C       -1.09522        -4.48417        -5.54504
   C       -1.80192        -5.09292        -4.44870
   C       -1.41443        -6.36612        -4.00462
   C       -2.07886        -6.94086        -2.95021
   C       -3.17033        -6.28511        -2.35170
   C       -3.59288        -5.04720        -2.81729
   C       -2.90051        -4.45659        -3.85231
   C       -3.69386        -7.12948        -1.30100
   C       -2.92529        -8.30517        -1.25164
   C       -1.81405        -8.26279        -2.27144
   C       -1.90421        -9.44701        -3.25180
   C       -3.26455        -9.55755        -3.92881
   C       -0.43110        -8.25953        -1.58904
   C       -0.25506        -7.11448        -0.59895
   C       -3.24197        -9.31161        -0.37324
   C       -4.34828        -9.15921         0.47201
   C       -5.07654        -7.96367         0.45125
   C       -4.76063        -6.95087        -0.43092
   C       -4.77753       -10.25189         1.33216
   C       -4.74647       -11.58941         0.89594
   C       -5.17376       -12.68701         1.73627
   N       -5.16497       -13.94080         1.24261
   C       -4.74607       -14.15438         0.02516
   C       -4.32002       -13.06257        -0.80957
   N       -4.34628       -11.83576        -0.36605
   C       -3.87728       -13.29620        -2.13577
   N       -3.50413       -13.50413        -3.19856
   C       -4.73313       -15.47763        -0.48312
   N       -4.69557       -16.53323        -0.92634
   C       -5.64571       -12.48324         3.04598
   C       -5.70437       -11.14444         3.46928
   C       -5.27946       -10.04678         2.62596
   N       -5.38958        -8.87092         3.25709
   S       -5.95380        -9.11754         4.73150
   N       -6.09939       -10.70882         4.67314
   C       -6.04649       -13.57421         3.92320
   C       -7.12932       -13.39319         4.79441
   C       -7.48633       -14.40949         5.64447
   C       -6.77859       -15.62435         5.64835
   C       -5.71030       -15.81423         4.78308
   C       -5.35237       -14.78987         3.92969
   C       -7.35508       -16.48806         6.65547
   C       -8.41957       -15.80357         7.27356
   C       -8.59494       -14.43075         6.66901
   C       -8.40233       -13.32241         7.72117
   C       -7.03899       -13.38133         8.39949
   C       -9.97732       -14.28060         6.00609
   C      -10.25006       -15.34878         4.95396
   C       -9.13865       -16.39959         8.27657
   C       -8.77673       -17.68582         8.71888
   C       -7.73542       -18.36794         8.07320
   C       -7.02982       -17.78073         7.04347
   C       -9.54088       -18.26726         9.78791
   C       -9.12125       -19.12184        10.75901
   C       -9.98027       -19.73184        11.76472
   C      -11.34561       -19.81683        11.72831
   C      -12.12554       -20.44368        12.72454
   N      -12.81522       -20.93145        13.50112
   C      -12.16822       -19.31999        10.69357
   N      -12.90636       -18.95882         9.89173
   C       -9.12083       -20.31291        12.79004
   C       -7.77946       -20.12686        12.41625
   C       -7.70720       -19.40468        11.12700
   O       -6.69489       -19.06863        10.55701
   C       -6.73542       -20.57684        13.19880
   C       -7.03660       -21.23326        14.38504
   C       -8.37060       -21.42127        14.76745
   C       -9.41865       -20.96446        13.97682
  Cl       -8.72871       -22.22735        16.24039
  Cl       -5.76777       -21.81407        15.38451
   H       -0.37997        -0.68968        -9.17644
   H       -1.75195         0.83783        -4.64130
   H       -0.73053        -5.15608        -6.31615
   H       -0.57432        -6.85710        -4.47268
   H       -4.44626        -4.55329        -2.37805
   H       -3.23086        -3.50456        -4.24294
   H       -1.70349       -10.37034        -2.70541
   H       -1.12734        -9.33351        -4.01027
   H       -4.04904        -9.70351        -3.18976
   H       -3.27282       -10.40871        -4.60489
   H       -3.48845        -8.65779        -4.49837
   H        0.33674        -8.19128        -2.36209
   H       -0.30107        -9.21312        -1.07241
   H       -0.34136        -6.15200        -1.09612
   H        0.72807        -7.17350        -0.13786
   H       -1.00558        -7.16585         0.18715
   H       -2.64619       -10.20883        -0.32465
   H       -5.91762        -7.85356         1.11726
   H       -5.34493        -6.04347        -0.45135
   H       -7.67474       -12.46331         4.78215
   H       -5.15759       -16.74121         4.78271
   H       -4.50720       -14.91698         3.27258
   H       -9.18831       -13.41497         8.47357
   H       -8.51885       -12.35370         7.23143
   H       -6.89179       -14.34129         8.88980
   H       -6.96143       -12.59726         9.14901
   H       -6.24325       -13.24057         7.67167
   H      -10.03476       -13.29309         5.54367
   H      -10.74438       -14.33157         6.78143
   H       -9.50502       -15.30954         4.16228
   H      -11.23101       -15.19368         4.51119
   H      -10.22760       -16.34176         5.39721
   H       -9.95908       -15.88543         8.75639
   H       -7.50612       -19.37901         8.36523
   H       -6.23610       -18.32047         6.55055
   H      -10.57120       -17.93247         9.83303
   H       -5.71305       -20.42228        12.89183
   H      -10.43236       -21.12240        14.30644
*
