# ORCA input file
# SCF done       -216.805126005180          0.000699645566
! CAM-B3LYP def2-SVP def2/J RIJCOSX Grid4 TightSCF
%maxcore 5000
%tddft
    Mode sTDDFT
    Ethresh 5.0
    maxcore 5000
end

%pal
  nprocs 6
  end
* xyz 0 1
   C       -6.00937        -7.43750        -5.48790
   C       -6.66614        -7.18251        -4.31126
   C       -8.06499        -7.04566        -4.20374
   N       -9.19914        -6.94785        -4.05642
   C       -6.00993        -6.93699        -3.08844
   N       -5.52148        -6.68739        -2.08036
   C       -6.62500        -7.40806        -6.81438
   C       -5.61625        -7.22769        -7.77802
   C       -5.91028        -7.11994        -9.12166
   C       -7.24074        -7.20538        -9.51470
   C       -8.24793        -7.39811        -8.56273
   C       -7.94908        -7.49640        -7.20781
  Cl       -9.88570        -7.51677        -9.06478
  Cl       -7.64681        -7.07530       -11.17802
   C       -4.29588        -7.19705        -7.10930
   O       -3.21264        -7.01244        -7.61323
   C       -4.57901        -7.49836        -5.68186
   C       -3.54253        -7.82751        -4.85493
   C       -3.56865        -8.52082        -3.62897
   S       -2.18198        -8.45826        -2.57038
   C       -2.93327        -9.53356        -1.44105
   C       -4.17630        -9.94435        -1.89830
   C       -4.53417        -9.37167        -3.10731
   C       -2.30921        -9.88469        -0.21895
   C       -1.10315        -9.43963         0.28681
   C       -0.80064        -9.96406         1.53964
   C       -1.76649       -10.82946         2.02041
   S       -3.07454       -10.98863         0.88828
   C       -1.78331       -11.52482         3.25959
   S       -3.01146       -12.69597         3.62037
   C       -2.34568       -12.98511         5.20200
   C       -1.22263       -12.20096         5.40580
   C       -0.90487       -11.39082         4.32174
   C       -2.98361       -13.92602         6.04998
   C       -2.65427       -14.15098         7.34604
   C       -3.30319       -15.08316         8.19558
   S       -2.81490       -15.12951         9.87558
   C       -3.95089       -16.39354        10.29349
   C       -4.65937       -16.75766         9.15755
   C       -4.30347       -16.02164         7.99013
   C       -5.10379       -16.46083         6.85013
   O       -5.08767       -16.06120         5.70796
   C       -6.01467       -17.55933         7.36818
   C       -5.70419       -17.72869         8.84451
   O       -6.24217       -18.53228         9.57254
   C       -3.99867       -16.81589        11.64646
   C       -4.80705       -17.79669        12.11992
   C       -4.89682       -18.19592        13.47711
   S       -5.95686       -19.51595        13.88654
   C       -5.57331       -19.36495        15.57341
   C       -4.66770       -18.34054        15.78313
   C       -4.28749       -17.69156        14.61377
   C       -6.17479       -20.21722        16.53450
   C       -7.02447       -21.28133        16.30188
   C       -7.46095       -21.90715        17.46442
   C       -6.95987       -21.33395        18.61916
   S       -5.91328       -19.99478        18.23884
   C       -7.23092       -21.71044        19.95916
   S       -6.56823       -20.84735        21.30751
   C       -7.39132       -21.88531        22.44495
   C       -8.12919       -22.84971        21.77018
   C       -8.04035       -22.75323        20.39119
   C       -7.26008       -21.66589        23.83117
   C       -7.88972       -22.40229        24.79316
   C       -7.73652       -22.12308        26.16232
   C       -8.35434       -22.81581        27.17350
   C       -8.23948       -22.56414        28.59481
   C       -7.51170       -21.57738        29.20979
   C       -7.45226       -21.39093        30.60708
   N       -7.35850       -21.18268        31.73220
   C       -6.72507       -20.60569        28.55683
   N       -6.06478       -19.78005        28.10774
   C       -9.05962       -23.55848        29.28669
   C       -9.66930       -24.38942        28.33163
   C       -9.26253       -23.96710        26.97329
   O       -9.61552       -24.47777        25.93020
   C      -10.50797       -25.42336        28.69287
   C      -10.74543       -25.63732        30.04480
   C      -10.14159       -24.81715        31.00366
   C       -9.29775       -23.77514        30.63406
  Cl      -10.44062       -25.09301        32.67235
  Cl      -11.78344       -26.91408        30.53687
   H       -5.12600        -6.97186        -9.84699
   H       -8.74867        -7.64733        -6.50084
   H       -2.55879        -7.58150        -5.24338
   H       -4.79394       -10.63022        -1.34614
   H       -5.44954        -9.59921        -3.62420
   H       -0.47475        -8.74944        -0.24778
   H        0.09619        -9.72893         2.08260
   H       -0.64801       -12.22490         6.31389
   H       -0.06874       -10.71560         4.30661
   H       -3.79777       -14.48445         5.60936
   H       -1.85803       -13.58376         7.80959
   H       -5.84964       -18.49260         6.82518
   H       -7.06430       -17.29582         7.21928
   H       -3.33247       -16.28941        12.31696
   H       -5.45062       -18.32470        11.42991
   H       -4.30491       -18.08583        16.76366
   H       -3.59461       -16.87011        14.59164
   H       -7.30997       -21.58198        15.30957
   H       -8.12672       -22.75028        17.47080
   H       -8.71267       -23.59603        22.27747
   H       -8.54670       -23.41550        19.71326
   H       -6.61962       -20.84620        24.13390
   H       -8.53386       -23.22121        24.51520
   H       -7.08474       -21.29825        26.41979
   H      -10.96588       -26.04782        27.94211
   H       -8.85203       -23.16551        31.40260
*
