# ORCA input file
# SCF done       -252.064784173285          0.000424199035
! CAM-B3LYP def2-SVP def2/J RIJCOSX Grid4 TightSCF
%maxcore 5000
%tddft
    Mode sTDDFT
    Ethresh 5.0
    maxcore 5000
end

%pal
  nprocs 6
  end
* xyz 0 1
   C       -7.41183         7.47192         2.82057
   C       -8.43509         7.58288         3.71910
   C       -9.83104         7.61610         3.28192
   O      -10.17802         7.53042         2.12381
   C      -10.77952         7.76699         4.40607
   C      -10.34201         7.90749         5.75026
   C      -11.40218         8.04380         6.61502
   S      -12.92772         8.00084         5.82162
   C      -12.14937         7.80145         4.30403
   C      -12.97813         7.67998         3.06297
   F      -12.75582         8.66712         2.19193
   F      -12.78607         6.52157         2.42614
   F      -14.29003         7.73108         3.36239
   C      -11.37068         8.20900         8.10294
   F      -10.77012         7.19218         8.72806
   F      -10.77613         9.33873         8.49305
   F      -12.62428         8.25921         8.59572
   C       -8.91613         7.90015         6.17019
   O       -8.61698         8.09655         7.33373
   C       -7.98632         7.66723         5.07918
   C       -6.59356         7.59353         5.16741
   S       -5.88480         7.45441         3.57213
   C       -5.69736         7.58244         6.26638
   S       -3.98927         7.81748         5.95223
   C       -3.59697         7.61043         7.62755
   C       -4.74142         7.36674         8.36965
   C       -5.90672         7.35497         7.61516
   C       -2.26311         7.70775         8.09697
   C       -1.80443         7.54625         9.39113
   C       -0.42994         7.71741         9.51740
   C        0.20073         8.01639         8.32475
   S       -0.94574         8.07916         7.01800
   C        1.57683         8.26779         8.10458
   S        2.72396         8.20994         9.41329
   C        4.03779         8.63901         8.35071
   C        3.57625         8.80312         7.05671
   C        2.20764         8.59513         6.92035
   C        5.34314         8.78110         8.88738
   C        6.42927         9.20054         8.19180
   C        7.72720         9.36411         8.73807
   N        8.75900         9.86588         7.96709
   C        9.87848         9.94104         8.73272
   C       11.21873        10.31454         8.73388
   C       11.69179        10.05778        10.02610
   N       10.66538         9.53607        10.79066
   C        9.54593         9.46201        10.02507
   C        8.20233         9.10268        10.02886
   C       12.97744        10.25968        10.58922
   C       14.03339        10.81230         9.94263
   C       15.31391        11.02563        10.51539
   S       16.54937        11.81932         9.57782
   C       17.68960        11.71737        10.88746
   C       17.11783        11.08979        11.97908
   C       15.79709        10.70637        11.77204
   C       19.00254        12.24198        10.77386
   C       20.00649        12.23041        11.72529
   C       21.17940        12.84599        11.30097
   C       21.10687        13.34455        10.01503
   S       19.53867        13.03285         9.32063
   C       22.10785        14.03090         9.28658
   S       23.65732        14.36800         9.99474
   C       24.19352        15.17033         8.54006
   C       23.19520        15.15343         7.57792
   C       22.03238        14.52002         7.99255
   C       25.47768        15.74280         8.42701
   C       26.40885        15.73869         9.41668
   C       27.68991        16.31762         9.31134
   C       28.68359        16.36049        10.28943
   C       28.55676        15.79193        11.61737
   O       27.57636        15.20962        12.04569
   C       29.77096        15.98603        12.45225
   C       30.93915        16.66329        12.00420
   C       31.91053        16.70490        12.97545
   S       31.43515        15.93305        14.43413
   C       29.90809        15.54201        13.74552
   C       28.91386        14.79001        14.57450
   F       27.78627        15.47378        14.78637
   F       28.58351        13.60734        14.04958
   F       29.42311        14.52591        15.79451
   C       33.26915        17.32799        12.88731
   F       33.22150        18.64414        12.66502
   F       33.93935        17.16738        14.04459
   F       34.03089        16.77957        11.93746
   C       31.06048        17.24174        10.64526
   O       32.05148        17.81992        10.25489
   C       29.85897        17.03661         9.83780
   C       29.74644        17.48597         8.55090
   S       28.23583        17.11387         7.84985
   H       -7.50815         7.40227         1.75467
   H       -4.72527         7.20709         9.43189
   H       -6.88084         7.19066         8.03410
   H       -2.45282         7.31153        10.21518
   H        0.10760         7.63269        10.44520
   H        4.21743         9.06310         6.23436
   H        1.67161         8.67985         5.99106
   H        5.44832         8.54916         9.93720
   H        6.32135         9.45064         7.14453
   H        8.66948        10.13750         7.00336
   H       11.79209        10.71645         7.92378
   H       10.75055         9.27903        11.75877
   H        7.62898         8.70372        10.84041
   H       13.09411         9.94970        11.61943
   H       13.91500        11.13364         8.91810
   H       17.64926        10.92015        12.89790
   H       15.20682        10.20626        12.51813
   H       19.88533        11.78774        12.69674
   H       22.06677        12.93539        11.90248
   H       23.32415        15.59632         6.60622
   H       21.14960        14.40903         7.38792
   H       25.70728        16.21320         7.47768
   H       26.18481        15.27077        10.36639
   H       30.49239        18.01905         7.99440
*
