# ORCA input file
# SCF done       -126.805131437430          0.000828097400
! CAM-B3LYP def2-SVP def2/J RIJCOSX Grid4 TightSCF
%maxcore 5000
%tddft
    Mode sTDDFT
    Ethresh 5.0
    maxcore 5000
end

%pal
  nprocs 6
  end
* xyz 0 1
   C        0.38541        -0.94997        -0.78605
   C        1.05113         0.13127        -1.17637
   C        2.17476         0.18172        -2.10098
   C        2.65570        -0.95257        -2.76740
   C        3.72168        -0.83527        -3.62559
   C        4.33628         0.40893        -3.84409
   C        3.86912         1.53944        -3.19277
   C        2.79561         1.41339        -2.33185
   C        5.42090         0.22786        -4.78677
   C        5.47714        -1.12814        -5.14994
   C        4.39644        -1.91323        -4.44283
   C        3.41792        -2.55044        -5.44657
   C        2.77512        -1.52752        -6.37523
   C        4.99706        -3.00886        -3.54333
   C        5.98046        -2.45728        -2.51831
   C        6.42172        -1.57900        -6.03760
   C        7.34473        -0.67759        -6.59021
   C        7.27640         0.67085        -6.21707
   C        6.32654         1.12835        -5.32459
   C        8.34506        -1.14969        -7.52005
   N        9.02573        -0.29649        -8.36431
   C        9.89472        -1.02727        -9.11384
   C       10.86297        -0.94890       -10.11653
   C       11.32157        -2.25104       -10.31318
   N       10.65237        -3.10213        -9.45386
   C        9.77414        -2.37439        -8.71549
   C        8.79710        -2.45004        -7.71870
   C       12.30163        -2.76523       -11.21093
   C       12.99192        -2.03713       -12.11129
   C       13.98008        -2.52608       -13.04261
   C       14.53528        -1.62165       -13.96356
   C       15.46887        -2.05142       -14.87309
   C       15.88336        -3.39338       -14.89167
   C       15.35073        -4.29751       -13.98487
   C       14.41013        -3.85979       -13.07495
   C       16.86194        -3.56009       -15.94575
   C       17.05276        -2.32054       -16.57910
   C       16.18081        -1.26006       -15.94630
   C       17.02642        -0.12525       -15.34010
   C       18.04342        -0.62664       -14.32199
   C       15.18475        -0.67327       -16.96337
   C       14.30942        -1.73782       -17.61356
   C       17.93285        -2.19328       -17.62588
   C       18.64911        -3.31262       -18.06892
   C       18.44689        -4.53945       -17.42856
   C       17.56452        -4.67542       -16.37398
   C       19.59590        -3.25227       -19.17330
   C       19.94744        -2.17546       -19.86720
   H       -0.43564        -0.88082        -0.09321
   H        0.62406        -1.94129        -1.13208
   H        0.75496         1.09490        -0.77833
   H        2.18778        -1.91196        -2.60865
   H        4.33262         2.50175        -3.35344
   H        2.42286         2.28885        -1.81809
   H        2.63779        -3.07479        -4.89018
   H        3.95881        -3.28989        -6.04129
   H        2.21779        -0.78836        -5.80390
   H        2.09034        -2.02160        -7.06099
   H        3.53378        -1.00982        -6.95807
   H        5.50483        -3.74074        -4.17547
   H        4.18375        -3.52217        -3.02550
   H        6.81074        -1.95909        -3.01398
   H        6.37741        -3.26455        -1.90670
   H        5.49002        -1.73876        -1.86526
   H        6.45544        -2.61777        -6.32726
   H        7.99619         1.37320        -6.61284
   H        6.29718         2.17221        -5.04835
   H        8.84160         0.68668        -8.45407
   H       11.20020        -0.07655       -10.63859
   H       10.80381        -4.09445        -9.40505
   H        8.47416        -3.32178        -7.18611
   H       12.46909        -3.83173       -11.13862
   H       12.79192        -0.97560       -12.16908
   H       14.21429        -0.58919       -13.94749
   H       15.66587        -5.33088       -13.98897
   H       14.00130        -4.56735       -12.37003
   H       16.35674         0.59207       -14.86030
   H       17.54787         0.39352       -16.14775
   H       17.54345        -1.13116       -13.49809
   H       18.61508         0.20726       -13.92046
   H       18.73457        -1.32794       -14.78446
   H       15.74488        -0.14290       -17.73683
   H       14.55052         0.05448       -16.45214
   H       14.92057        -2.46344       -18.14582
   H       13.62356        -1.27852       -18.32207
   H       13.72689        -2.26604       -16.86193
   H       18.07044        -1.23766       -18.10811
   H       18.99987        -5.40321       -17.77148
   H       17.42598        -5.63374       -15.89528
   H       20.04672        -4.20422       -19.42907
   H       19.54759        -1.19559       -19.66992
   H       20.66165        -2.23689       -20.67046
*
