# ORCA input file
# SCF done       -227.318452158176          0.000495269498
! CAM-B3LYP def2-SVP def2/J RIJCOSX Grid4 TightSCF
%maxcore 5000
%tddft
    Mode sTDDFT
    Ethresh 5.0
    maxcore 5000
end

%pal
  nprocs 6
  end
* xyz 0 1
   C       -9.39085         0.20509        -6.74489
   C      -10.30635         0.03190        -7.74488
   F      -10.79179         1.09094        -8.40416
   C      -10.75107        -1.25926        -8.09464
   F      -11.64903        -1.39928        -9.07840
   C      -10.27408        -2.35962        -7.43903
   C       -9.33052        -2.21371        -6.40361
   C       -8.87929        -0.90900        -6.04957
   C       -7.93223        -0.73723        -5.01393
   C       -7.45303        -1.83588        -4.35047
   C       -7.91541        -3.13412        -4.70680
   C       -8.82528        -3.33256        -5.70524
   C       -7.27169        -4.13074        -3.83541
   O       -7.42035        -5.33896        -3.88320
   C       -6.43070        -3.37331        -2.89970
   C       -6.48936        -1.96719        -3.25953
   C       -5.75538        -0.94240        -2.72568
   C       -5.86264         0.40259        -3.14132
   N       -5.90743         1.51180        -3.43225
   C       -4.77118        -1.06925        -1.72093
   N       -3.94528        -1.08887        -0.92417
   C       -5.77330        -3.90676        -1.82462
   C       -5.68984        -5.24379        -1.39827
   C       -5.02712        -5.58759        -0.21349
   F       -4.46114        -4.66808         0.56800
   C       -5.02813        -6.94556         0.06290
   C       -5.69522        -7.67631        -0.93667
   S       -6.33324        -6.67585        -2.18855
   C       -5.70097        -9.04497        -0.64485
   C       -5.04294        -9.33205         0.55650
   S       -4.39939        -7.92887         1.35720
   C       -5.04786       -10.69827         0.85934
   F       -4.42020       -11.18762         1.92669
   C       -5.69459       -11.46692        -0.09360
   S       -6.27116       -10.47885        -1.41724
   C       -5.91685       -12.88417        -0.10827
   C       -6.18685       -13.56295        -1.29192
   O       -6.30984       -12.82020        -2.43956
   C       -5.28848       -12.99855        -3.41319
   C       -6.36808       -14.97179        -1.34818
   O       -6.57972       -15.57386        -2.56431
   C       -7.83352       -15.30725        -3.17977
   C       -6.30215       -15.79005        -0.22499
   C       -6.03746       -15.12266         1.00007
   C       -5.86795       -13.69011         1.05943
   N       -5.67842       -13.37775         2.32507
   O       -5.70144       -14.51708         2.99820
   N       -5.90800       -15.57517         2.23049
   C       -6.48962       -17.20909        -0.32653
   C       -6.79757       -18.12597         0.66306
   F       -7.09240       -17.81302         1.92252
   C       -6.84605       -19.44693         0.19919
   C       -6.56630       -19.54450        -1.16827
   S       -6.30390       -17.99515        -1.88048
   C       -6.60294       -20.87067        -1.60763
   C       -6.91266       -21.76082        -0.57006
   S       -7.16220       -20.97664         0.96112
   C       -6.95084       -23.08573        -1.00946
   F       -7.23748       -24.12251        -0.22548
   C       -6.62940       -23.24276        -2.34913
   S       -6.33821       -21.68296        -3.10251
   C       -6.63267       -24.47525        -3.04746
   C       -6.03636       -24.79421        -4.22539
   C       -6.52924       -25.96345        -5.00894
   O       -7.26986       -26.83485        -4.62174
   C       -5.96888       -25.77856        -6.36356
   C       -6.20430       -26.50689        -7.49405
   C       -5.56442       -26.13365        -8.69717
   C       -4.69457       -25.00424        -8.70652
   C       -4.06257       -24.63605        -9.91136
   C       -4.28102       -25.35642       -11.05191
   C       -5.14096       -26.47348       -11.04148
   C       -5.76970       -26.85506        -9.88952
   F       -5.33790       -27.15923       -12.17479
   F       -3.67838       -25.00596       -12.19503
   C       -4.46596       -24.27165        -7.51948
   C       -5.08897       -24.65812        -6.36322
   C       -5.00491       -24.13768        -5.00180
   C       -3.96583       -23.40108        -4.49853
   C       -3.76349       -23.19226        -3.11794
   N       -3.54386       -23.04660        -2.00091
   C       -2.93380       -22.86045        -5.29226
   N       -2.08514       -22.38616        -5.90188
   H       -9.06053         1.20007        -6.49031
   H      -10.62482        -3.34078        -7.71830
   H       -7.61468         0.26323        -4.76937
   H       -9.15671        -4.32884        -5.95545
   H       -5.24681        -3.22063        -1.17017
   H       -5.56973       -12.36300        -4.24984
   H       -5.21904       -14.03813        -3.73836
   H       -4.32137       -12.67645        -3.01645
   H       -7.98360       -14.23784        -3.33833
   H       -8.65107       -15.70290        -2.56996
   H       -7.80641       -15.82631        -4.13522
   H       -7.25355       -25.25217        -2.60913
   H       -6.86763       -27.35800        -7.47041
   H       -3.39810       -23.78652        -9.93579
   H       -6.42427       -27.71247        -9.89797
   H       -3.80965       -23.41661        -7.55412
*
