# ORCA input file
# SCF done       -235.963555402086          0.000693140047
! CAM-B3LYP def2-SVP def2/J RIJCOSX Grid4 TightSCF
%maxcore 5000
%tddft
    Mode sTDDFT
    Ethresh 5.0
    maxcore 5000
end

%pal
  nprocs 6
  end
* xyz 0 1
   C       -1.04667         2.72648         0.83097
   C       -0.95702         3.63738        -0.18386
   F       -0.60891         4.90385         0.07714
   C       -1.22878         3.25871        -1.51424
   F       -1.13344         4.17330        -2.48816
   C       -1.58707         1.97363        -1.81128
   C       -1.68914         1.01198        -0.78733
   C       -1.41285         1.39300         0.55805
   C       -1.50368         0.44416         1.60198
   C       -1.85986        -0.84612         1.30868
   C       -2.14338        -1.21405        -0.03493
   C       -2.06302        -0.32152        -1.06470
   C       -2.52001        -2.63962        -0.09089
   O       -2.83937        -3.25117        -1.08713
   C       -2.48904        -3.11566         1.31442
   C       -2.02095        -2.02556         2.15287
   C       -1.69199        -2.09590         3.48197
   C       -1.73826        -3.25930         4.27938
   N       -1.72643        -4.16433         4.98636
   C       -1.21268        -1.00178         4.23340
   N       -0.82460        -0.15190         4.90002
   C       -2.95919        -4.30660         1.80038
   C       -3.32779        -5.48651         1.12692
   C       -3.11398        -5.92413        -0.17686
   C       -3.59186        -7.20889        -0.38100
   C       -4.19232        -7.77192         0.77241
   S       -4.13747        -6.72059         2.10522
   C       -4.65462        -9.06865         0.45941
   C       -4.33974        -9.33599        -0.89169
   C       -3.65908        -8.18214        -1.45899
   C       -3.17260        -8.05847        -2.72631
   C       -3.31165        -9.08837        -3.68232
   N       -3.42358        -9.91864        -4.46495
   C       -2.47914        -6.91329        -3.17622
   N       -1.89487        -6.00651        -3.56316
   C       -4.73927       -10.60081        -1.29429
   C       -5.36314       -11.30288        -0.26715
   S       -5.45695       -10.37483         1.21796
   C       -5.87977       -12.62366        -0.33876
   C       -6.53918       -13.22312         0.75726
   C       -7.06714       -14.55381         0.70514
   N       -7.69432       -15.05693         1.78679
   C       -7.80831       -14.33785         2.85617
   C       -7.28036       -13.02020         2.90964
   N       -6.67539       -12.50423         1.88914
   F       -7.39546       -12.28029         4.00540
   F       -8.43636       -14.86689         3.89889
   C       -6.95596       -15.37137        -0.44134
   C       -6.29414       -14.77972        -1.54428
   C       -5.77126       -13.43276        -1.49546
   N       -5.19418       -13.09384        -2.64953
   S       -5.29257       -14.31501        -3.67976
   N       -6.06939       -15.34487        -2.73168
   C       -7.47557       -16.69249        -0.46813
   C       -7.39198       -17.59312        -1.52603
   C       -8.00264       -18.80121        -1.22895
   C       -8.56354       -18.82656         0.06745
   S       -8.32383       -17.36036         0.91421
   C       -9.15459       -20.09379         0.26548
   C       -8.97370       -20.87259        -0.90027
   C       -8.24267       -20.08146        -1.87582
   C       -7.86705       -20.45374        -3.13251
   C       -8.17004       -21.72733        -3.66018
   N       -8.42153       -22.75782        -4.09481
   C       -7.15867       -19.58712        -3.99256
   N       -6.58649       -18.88780        -4.69804
   C       -9.54126       -22.13446        -0.79738
   C      -10.12897       -22.35129         0.44380
   S      -10.00787       -20.92806         1.47790
   C      -10.84263       -23.51385         0.80541
   C      -11.29287       -23.93344         2.02032
   C      -12.42218       -24.90558         2.07275
   O      -12.84504       -25.57238         1.15847
   C      -12.94031       -24.81658         3.45301
   C      -14.04974       -25.40148         3.99178
   C      -14.37511       -25.14200         5.34209
   C      -13.54376       -24.27409         6.10878
   C      -13.88247       -24.01073         7.45122
   C      -14.99126       -24.58451         8.00736
   C      -15.81051       -25.44553         7.24935
   C      -15.50973       -25.71958         5.94458
   F      -16.89111       -25.99317         7.82024
   F      -15.31160       -24.33240         9.28263
   C      -12.39408       -23.69171         5.52714
   C      -12.09411       -23.96510         4.21997
   C      -10.97568       -23.54851         3.37782
   C       -9.74820       -23.14741         3.83688
   C       -8.61290       -23.05092         3.00670
   N       -7.66592       -23.00442         2.35983
   C       -9.46724       -22.89327         5.19446
   N       -9.20138       -22.66238         6.28651
   H       -0.83332         3.03263         1.84322
   H       -1.79178         1.69920        -2.83424
   H       -1.29340         0.76587         2.60898
   H       -2.28024        -0.63111        -2.07563
   H       -3.08463        -4.37099         2.87524
   H       -2.63683        -5.31457        -0.92215
   H       -4.60158       -11.02612        -2.27110
   H       -6.90147       -17.34258        -2.44841
   H       -9.52225       -22.88768        -1.56438
   H      -11.16019       -24.13015        -0.03155
   H      -14.67164       -26.05221         3.39621
   H      -13.26420       -23.35768         8.04709
   H      -16.14679       -26.38024         5.37766
   H      -11.78442       -23.03380         6.12605
*
