# ORCA input file
# SCF done       -182.715013173266          0.000973074308
! CAM-B3LYP def2-SVP def2/J RIJCOSX Grid4 TightSCF
%maxcore 5000
%tddft
    Mode sTDDFT
    Ethresh 5.0
    maxcore 5000
end

%pal
  nprocs 6
  end
* xyz 0 1
   C       -0.50608         1.81276        -2.97823
   C        0.19065         1.94261        -4.14679
   F        0.71015         3.12793        -4.49321
   C        0.37254         0.83602        -5.00015
   F        1.06089         0.99183        -6.13964
   C       -0.14461        -0.38589        -4.67255
   C       -0.86549        -0.55231        -3.47419
   C       -1.05205         0.56629        -2.61120
   C       -1.77339         0.42307        -1.40359
   C       -2.28799        -0.80172        -1.06950
   C       -2.08992        -1.91457        -1.93253
   C       -1.40253        -1.80624        -3.10657
   C       -2.72318        -3.11585        -1.34778
   O       -2.75082        -4.22015        -1.84699
   C       -3.24766        -2.68093        -0.02950
   C       -3.05271        -1.25019         0.08981
   C       -3.56619        -0.44098         1.07060
   C       -4.38681        -0.88530         2.12847
   N       -5.07594        -1.16905         3.00209
   C       -3.37188         0.95456         1.12076
   N       -3.24398         2.09194         1.21128
   C       -3.61097        -3.52162         0.98966
   C       -3.80787        -4.91865         0.92491
   C       -4.38603        -5.58588        -0.13377
   C       -4.43468        -6.99742        -0.02904
   C       -3.91475        -7.52814         1.13317
  Si       -3.34438        -6.15991         2.27591
   C       -3.81243        -8.90961         1.42267
   C       -3.27159        -9.29365         2.67268
   C       -3.09582       -10.66240         3.05091
   N       -2.55393       -10.95333         4.24706
   C       -2.21197        -9.99282         5.04518
   C       -2.40011        -8.63485         4.67606
   N       -2.90844        -8.32034         3.52750
   F       -2.05456        -7.64804         5.49656
   F       -1.67367       -10.31630         6.21643
   C       -3.45684       -11.74078         2.20903
   C       -4.01774       -11.36857         0.96157
   C       -4.19220        -9.98262         0.57672
   N       -4.73525        -9.87773        -0.63521
   S       -5.00083       -11.34378        -1.22975
   N       -4.44124       -12.19703         0.00787
   C       -3.22576       -13.05566         2.67581
   C       -3.47291       -14.20681         1.96016
   C       -3.20983       -15.41673         2.64667
   C       -2.75403       -15.29991         3.93930
  Si       -2.54575       -13.46504         4.36997
   C       -2.43389       -16.39808         4.76847
   C       -3.03705       -17.61919         4.86382
   C       -2.31289       -18.74284         5.51205
   O       -1.30543       -18.66938         6.17758
   C       -3.05259       -19.95958         5.11618
   C       -2.73852       -21.26729         5.34744
   C       -3.59122       -22.27729         4.84766
   C       -4.75374       -21.90874         4.11028
   C       -5.59672       -22.92118         3.60961
   C       -5.30100       -24.23674         3.83244
   C       -4.15155       -24.59986         4.56251
   C       -3.31377       -23.64159         5.06045
   F       -3.88531       -25.89748         4.76404
   F       -6.10406       -25.19729         3.35617
   C       -5.05556       -20.54491         3.89039
   C       -4.22001       -19.58314         4.39203
   C       -4.29011       -18.12333         4.35079
   C       -5.42156       -17.39288         4.08972
   C       -5.52282       -16.00425         4.30246
   N       -5.67818       -14.88486         4.50573
   C       -6.63696       -17.95844         3.65534
   N       -7.63723       -18.37254         3.27329
   H       -0.63741         2.67041        -2.33710
   H        0.00380        -1.22339        -5.33612
   H       -1.89282         1.28604        -0.76863
   H       -1.26838        -2.66654        -3.74460
   H       -3.65430        -3.10190         1.98858
   H       -4.83159        -5.08310        -0.97717
   H       -4.84793        -7.60582        -0.81768
   H       -1.90528        -6.07421         2.50835
   H       -4.20560        -5.93018         3.42937
   H       -3.84420       -14.20195         0.94761
   H       -3.31669       -16.36954         2.14507
   H       -1.10940       -13.22222         4.49333
   H       -3.37562       -13.15574         5.52256
   H       -1.56582       -16.27464         5.41035
   H       -1.85197       -21.52855         5.90490
   H       -6.48272       -22.66070         3.05191
   H       -2.43800       -23.93575         5.61742
   H       -5.93759       -20.29503         3.32252
*
