# ORCA input file
# SCF done       -225.500621909434          0.000272600988
! CAM-B3LYP def2-SVP def2/J RIJCOSX Grid4 TightSCF
%maxcore 5000
%tddft
    Mode sTDDFT
    Ethresh 5.0
    maxcore 5000
end

%pal
  nprocs 6
  end
* xyz 0 1
   C       -7.17524         4.65424         4.76366
   C       -5.84329         4.43199         4.52284
   C       -5.24930         3.15470         4.52537
   N       -4.72313         2.13467         4.48642
   C       -4.89902         5.46083         4.33055
   N       -4.08216         6.25926         4.21806
   C       -8.11606         3.65346         5.26022
   C       -9.21956         4.32952         5.85784
   C      -10.24247         3.64892         6.45155
   C      -10.21549         2.23583         6.46228
   C       -9.12559         1.55358         5.84885
   C       -8.07404         2.28570         5.24995
   C       -9.11608         0.14410         5.85786
   C      -10.13090        -0.55961         6.44717
   C      -11.20229         0.11309         7.05319
   C      -11.24328         1.48098         7.06082
   C       -9.04492         5.78422         5.69378
   O       -9.75169         6.67215         6.11234
   C       -7.83363         5.93900         4.83788
   C       -7.61924         7.13653         4.22323
   C       -6.82643         7.44972         3.09765
   C       -6.25550         6.62009         2.14551
   C       -5.58216         7.29802         1.13140
   C       -4.79002         6.58982         0.12038
   C       -5.35886         5.53305        -0.60421
   C       -4.59373         4.84335        -1.53800
   C       -3.27092         5.19254        -1.73125
   C       -2.68741         6.21887        -1.01251
   C       -3.44174         6.92333        -0.08174
   O       -2.96364         7.95623         0.66469
   C       -1.59805         8.28303         0.57743
   O       -6.66803         5.26944        -0.34218
   C       -7.32300         4.28290        -1.10236
   C       -5.64737         8.68625         1.29026
   S       -6.50960         9.11848         2.72126
   C       -5.09691         9.69644         0.44654
   C       -4.70978        10.95586         0.95129
   C       -4.02055        11.92102         0.14551
   N       -3.64902        13.09550         0.69610
   C       -3.92098        13.33701         1.93534
   C       -4.60295        12.37733         2.73436
   N       -4.96977        11.24092         2.24446
   F       -4.88207        12.62901         4.00844
   F       -3.54292        14.50447         2.44272
   C       -3.70252        11.69667        -1.21165
   C       -4.16520        10.47138        -1.74516
   C       -4.87651         9.50803        -0.93456
   N       -5.28663         8.46484        -1.65811
   S       -4.79411         8.64021        -3.16856
   N       -4.05029        10.05429        -3.00826
   C       -2.98378        12.65623        -1.97917
   C       -2.66019        12.57401        -3.32544
   C       -1.90164        13.64220        -3.80398
   C       -1.56150        13.76861        -5.22404
   C       -1.95795        14.94183        -5.90215
   C       -1.71537        15.09297        -7.25640
   C       -1.09846        14.06945        -7.96079
   C       -0.72244        12.91330        -7.32260
   C       -0.93671        12.74642        -5.94968
   O       -0.51559        11.54692        -5.47569
   C       -0.04129        11.38379        -4.15418
   O       -2.62153        15.86429        -5.14450
   C       -3.10970        17.03077        -5.75971
   C       -1.65572        14.59670        -2.80620
   S       -2.38965        14.12710        -1.29070
   C       -1.06462        15.87373        -2.86428
   C       -0.10429        16.33924        -3.72349
   C        0.22993        17.72940        -3.94121
   C       -0.52146        18.81241        -3.55864
   C       -0.17776        20.14908        -3.84361
   N        0.04944        21.25661        -4.04576
   C       -1.76338        18.74047        -2.89538
   N       -2.79939        18.77095        -2.39988
   C        1.42999        17.77920        -4.76943
   C        1.79684        16.44567        -5.10795
   C        0.87122        15.50496        -4.45504
   O        0.97523        14.29478        -4.42528
   C        2.87766        16.17193        -5.89400
   C        3.66022        17.24169        -6.38509
   C        3.30773        18.57814        -6.04058
   C        2.17892        18.83027        -5.22618
   C        4.10386        19.63617        -6.52358
   C        5.19602        19.38856        -7.31013
   C        5.54140        18.07237        -7.65005
   C        4.78889        17.02205        -7.19848
   H      -11.06369         4.18127         6.90793
   H       -7.26382         1.74353         4.78758
   H       -8.28702        -0.36962         5.39350
   H      -10.11313        -1.63923         6.45044
   H      -11.99471        -0.45768         7.51380
   H      -12.06556         2.00478         7.52599
   H       -8.21400         7.95539         4.61771
   H       -6.34639         5.54988         2.15696
   H       -5.01476         4.03469        -2.11207
   H       -2.68052         4.65229        -2.45572
   H       -1.65143         6.46162        -1.18273
   H       -1.44304         9.08006         1.30300
   H       -1.33250         8.64818        -0.42120
   H       -0.96321         7.43135         0.83755
   H       -8.35312         4.27803        -0.74884
   H       -6.88359         3.29247        -0.94451
   H       -7.30913         4.52228        -2.16999
   H       -3.00375        11.76599        -3.94606
   H       -2.01232        15.98959        -7.77509
   H       -0.91224        14.19015        -9.01710
   H       -0.24427        12.10765        -7.85576
   H       -0.82534        11.00107        -3.49365
   H        0.35630        12.31677        -3.75967
   H        0.76097        10.64616        -4.21846
   H       -3.83437        16.79868        -6.54620
   H       -2.29969        17.63704        -6.17998
   H       -3.60255        17.59156        -4.96652
   H       -1.43940        16.56601        -2.11823
   H        3.13259        15.15144        -6.13851
   H        1.94253        19.85253        -4.97625
   H        3.83319        20.64811        -6.25986
   H        5.80001        20.20610        -7.67436
   H        6.40713        17.89453        -8.27046
   H        5.05059        16.00604        -7.45587
*
