# ORCA input file
# SCF done       -123.531181909268          0.000382850722
! CAM-B3LYP def2-SVP def2/J RIJCOSX Grid4 TightSCF
%maxcore 5000
%tddft
    Mode sTDDFT
    Ethresh 5.0
    maxcore 5000
end

%pal
  nprocs 6
  end
* xyz 0 1
   C        3.04454        -0.62398         4.34552
   C        3.05601        -0.35607         3.00457
   C        2.87182        -1.36062         2.04071
   C        2.66694        -2.68547         2.37809
   C        2.64990        -2.99401         3.76941
   C        2.84001        -1.95541         4.75345
   N        2.80133        -2.38124         6.01217
  Se        2.52531        -4.10567         6.02767
   N        2.46769        -4.20280         4.27916
   C        2.47777        -3.72322         1.40017
   C        2.46762        -3.58916         0.02764
   C        2.25868        -4.80868        -0.61585
   C        2.10654        -5.88706         0.26151
   S        2.22443        -5.37949         1.90688
   C        1.90041        -7.09400        -0.41832
   C        1.89732        -6.92573        -1.80970
   S        2.14845        -5.27172        -2.29206
   C        1.69647        -8.10863        -2.51883
   C        1.54496        -9.18572        -1.67153
   S        1.64949        -8.74320         0.01980
   C        1.32761       -10.53842        -2.02386
   N        1.18923       -11.50696        -1.16961
   C        1.00070       -12.66895        -1.79454
   C        0.98717       -12.63513        -3.19751
   S        1.22872       -11.02234        -3.74156
   N        0.80072       -13.79748        -3.82243
   C        0.66322       -14.76611        -2.96815
   S        0.75949       -14.28171        -1.25039
   C        0.45459       -16.12032        -3.31998
   C        0.29716       -17.19582        -2.47172
   C        0.11584       -18.38230        -3.18010
   C        0.13430       -18.21848        -4.57188
   S        0.37871       -16.56863        -5.01129
   C       -0.04715       -19.42977        -5.25100
   C       -0.20274       -20.50692        -4.37271
   S       -0.12764       -20.03710        -2.69644
   C       -0.38335       -21.73128        -5.01558
   C       -0.36791       -21.60224        -6.38854
   S       -0.12758       -19.94438        -6.89642
   C       -0.52059       -22.64624        -7.36617
   C       -0.70191       -23.97436        -7.02821
   C       -0.84876       -24.98517        -7.99194
   C       -0.82186       -24.72053        -9.33331
   C       -0.63997       -23.38601        -9.74185
   C       -0.48799       -22.34102        -8.75795
   N       -0.32354       -21.12990        -9.26820
  Se       -0.35109       -21.23287       -11.01709
   N       -0.59035       -22.96276       -11.00105
   H        3.18506         0.14290         5.08939
   H        3.20950         0.65701         2.66378
   H        2.89198        -1.07633         1.00080
   H        2.60389        -2.66008        -0.49271
   H        1.66168        -8.18793        -3.58989
   H        0.31492       -17.11299        -1.40051
   H       -0.51820       -22.66020        -4.49453
   H       -0.73181       -24.25641        -5.98790
   H       -0.98553       -26.00049        -7.65067
   H       -0.93371       -25.49223       -10.07706
*
