# ORCA input file
# SCF done       -140.984984907798          0.000980519061
! CAM-B3LYP def2-SVP def2/J RIJCOSX Grid4 TightSCF
%maxcore 5000
%tddft
    Mode sTDDFT
    Ethresh 5.0
    maxcore 5000
end

%pal
  nprocs 6
  end
* xyz 0 1
   C        1.18755         1.69558        -3.13941
   C       -0.11034         1.98523        -3.32698
   C       -0.92895         1.91782        -2.14754
   S        0.04533         1.45576        -0.76655
   C        1.55137         1.35966        -1.77444
   O        2.61423         1.06397        -1.31138
   C       -2.26248         2.19101        -2.15068
   C       -3.16882         2.16975        -1.06489
   S       -4.83240         2.61338        -1.35340
   C       -5.26020         2.37433         0.30975
   C       -4.13440         1.96054         1.04099
   C       -2.97385         1.85015         0.26709
   C       -4.12580         1.68649         2.41963
   N       -4.08079         1.45949         3.54409
   C       -6.58836         2.62250         0.71798
   C       -7.06325         2.46134         1.98605
   C       -8.39416         2.76562         2.34228
   N       -8.88785         2.63569         3.61670
   C       -8.15782         2.20801         4.78751
   C       -7.27923         3.32130         5.35107
   C      -10.23334         3.03290         3.70461
   O      -10.87705         3.00285         4.73249
   C      -10.58009         3.42611         2.35335
   C       -9.44029         3.24623         1.54318
   C       -9.78483         3.63578         0.19213
   O       -9.13864         3.65660        -0.83785
   N      -11.12429         4.03834         0.27779
   C      -11.85286         4.45849        -0.89499
   C      -12.76355         3.35328        -1.42409
   C      -11.62150         3.92531         1.55882
   C      -12.92467         4.30362         1.92981
   C      -13.39260         4.20295         3.21145
   C      -14.67170         4.62105         3.62967
   C      -15.15138         4.56400         4.93064
   C      -16.45796         5.10423         4.97595
   C      -16.78123         5.50764         3.59287
   C      -15.71394         5.21546         2.80489
   C      -17.96075         6.11050         3.14462
   N      -18.91362         6.61589         2.74688
   C      -17.28197         5.26000         6.07606
   C      -18.58868         5.80831         6.09494
   C      -19.06653         5.82197         7.39404
   C      -18.02951         5.24185         8.23958
   C      -16.96146         4.90873         7.47011
   C      -15.77580         4.33662         7.94519
   N      -14.81992         3.86731         8.37529
   C      -20.29355         6.26009         7.94187
   C      -21.30870         6.96187         7.35556
   S      -22.76052         7.31411         8.27857
   C      -23.51430         8.19734         6.88460
   O      -24.60546         8.68604         6.94448
   C      -22.55997         8.17550         5.79031
   C      -21.40789         7.52971         6.04139
   H        1.95160         1.69442        -3.89626
   H       -0.54632         2.25466        -4.27383
   H       -2.69397         2.46805        -3.10522
   H       -2.02624         1.54696         0.67298
   H       -7.26100         2.97651        -0.05358
   H       -6.40958         2.09673         2.76279
   H       -7.55704         1.32816         4.54329
   H       -8.91313         1.92799         5.52695
   H       -6.53146         3.63597         4.62677
   H       -6.76884         2.96505         6.24089
   H       -7.89054         4.17960         5.61910
   H      -11.09786         4.70319        -1.64733
   H      -12.42563         5.36197        -0.66715
   H      -12.17143         2.48179        -1.69225
   H      -13.28910         3.70137        -2.30896
   H      -13.49484         3.05599        -0.67558
   H      -13.56372         4.70708         1.15797
   H      -12.74801         3.79052         3.97680
   H      -14.61188         4.17553         5.77224
   H      -15.65172         5.39702         1.74806
   H      -19.11150         6.11507         5.21367
   H      -18.11260         5.11804         9.30369
   H      -20.44207         6.00476         8.98453
   H      -22.81443         8.66570         4.86716
   H      -20.60625         7.45341         5.33038
*
