# ORCA input file
# SCF done       -222.098683557434          0.000967235129
! CAM-B3LYP def2-SVP def2/J RIJCOSX Grid4 TightSCF
%maxcore 5000
%tddft
    Mode sTDDFT
    Ethresh 5.0
    maxcore 5000
end

%pal
  nprocs 6
  end
* xyz 0 1
   C        3.65676         2.51795         3.71773
   C        4.97851         2.74435         3.98099
   F        5.43636         3.99698         4.09965
   C        5.87550         1.66711         4.13134
   F        7.16522         1.91960         4.38934
   C        5.43775         0.37759         4.01578
   C        4.08135         0.11180         3.74500
   C        3.17281         1.19974         3.59434
   C        1.80586         0.95732         3.32857
   C        1.35956        -0.33422         3.22125
   C        2.27535        -1.41218         3.36550
   C        3.60167        -1.21032         3.61833
   C        1.56621        -2.69355         3.18682
   O        2.07322        -3.79268         3.16933
   C        0.14325        -2.33331         2.94144
   C        0.02924        -0.88537         2.98131
   C       -1.12717        -0.15390         2.90132
   C       -1.17431         1.25521         2.96763
   N       -1.27924         2.39719         3.00939
   C       -2.42969        -0.68465         2.77999
   N       -3.52186        -1.03185         2.70986
   C       -0.85773        -3.19396         2.58704
   C       -0.90107        -4.60584         2.68375
   C       -1.81449        -5.39002         2.00292
   C       -1.64486        -6.75071         2.38862
   C       -0.54591        -6.76284         3.36655
   C       -0.11108        -5.48749         3.53729
   C        0.03840        -7.88713         3.96727
   N        0.57896        -8.77970         4.44566
   C       -2.38616        -7.83986         1.98205
   C       -2.35064        -9.14730         2.52787
   C       -3.24150        -9.95611         1.84110
   C       -3.86792        -9.14216         0.80654
   C       -3.38546        -7.87556         0.89859
   C       -3.75035        -6.81469         0.06144
   N       -4.06543        -5.96602        -0.64496
   C       -3.46164       -11.31603         2.16647
   N       -4.09734       -12.26683         1.40611
   C       -4.66394       -12.11254         0.09329
   C       -4.08720       -13.53111         2.02653
   O       -4.57063       -14.52647         1.52660
   C       -3.40818       -13.30888         3.28314
   C       -3.03619       -11.95122         3.34203
   C       -2.40273       -11.71520         4.62837
   O       -1.96942       -10.71801         5.15734
   N       -2.40083       -12.98351         5.24474
   C       -1.82262       -13.18500         6.54605
   C       -2.99274       -13.93812         4.46521
   C       -3.09764       -15.29056         4.86132
   C       -3.69482       -16.24065         4.09257
   C       -3.78341       -17.60868         4.44839
   S       -4.62490       -18.68340         3.35716
   C       -4.35517       -20.08385         4.36404
   C       -3.60153       -19.71823         5.46945
   C       -3.30131       -18.33248         5.53404
   C       -2.51736       -18.04523         6.74040
   O       -2.05882       -16.98978         7.11009
   C       -2.37261       -19.36460         7.47371
   C       -2.88262       -20.43450         6.53079
   O       -2.67386       -21.62147         6.62375
   C       -4.91369       -21.33999         3.98584
   C       -5.27063       -22.32454         4.84833
   C       -5.27447       -22.11396         6.25415
   C       -4.99319       -22.93649         7.29695
   C       -4.60295       -22.25821         8.57004
   O       -4.80333       -21.09806         8.85410
   C       -3.83092       -23.25569         9.32476
   C       -3.14360       -23.09913        10.49436
   C       -2.41025       -24.18987        11.01093
   C       -2.39422       -25.42202        10.29449
   C       -1.64975       -26.50318        10.80796
   C       -0.95711       -26.36863        11.97843
   C       -0.97582       -25.15012        12.68730
   C       -1.68677       -24.08277        12.21485
   F       -0.28743       -25.04660        13.83131
   F       -0.25115       -27.39658        12.46509
   C       -3.11658       -25.55394         9.08670
   C       -3.83389       -24.48806         8.61178
   C       -4.66704       -24.34315         7.42029
   C       -5.16857       -25.38057         6.68335
   C       -6.13504       -25.23751         5.66850
   N       -6.94218       -25.17015         4.85509
   C       -4.84569       -26.73657         6.90826
   N       -4.61622       -27.85321         7.03792
   H        2.98387         3.35393         3.60705
   H        6.13624        -0.43609         4.13313
   H        1.14694         1.80265         3.21485
   H        4.27324        -2.04891         3.72296
   H       -1.75612        -2.76111         2.16158
   H       -2.54811        -5.03551         1.30434
   H        0.67594        -5.17491         4.19376
   H       -1.74556        -9.44489         3.36102
   H       -4.61278        -9.46760         0.10708
   H       -3.94964       -11.64871        -0.58790
   H       -5.58419       -11.52585         0.12685
   H       -4.90500       -13.11505        -0.26323
   H       -1.40020       -12.22972         6.85617
   H       -1.03337       -13.93625         6.51075
   H       -2.57983       -13.49664         7.26685
   H       -2.66634       -15.56290         5.81344
   H       -4.13445       -15.96536         3.14173
   H       -3.01401       -19.36049         8.36164
   H       -1.35272       -19.54561         7.81476
   H       -5.04957       -21.49492         2.92401
   H       -5.57164       -23.27783         4.44297
   H       -5.39519       -21.07563         6.55811
   H       -3.15725       -22.15558        11.01849
   H       -1.62673       -27.44353        10.27973
   H       -1.69011       -23.15729        12.76913
   H       -3.07258       -26.49353         8.55972
*
