# ORCA input file
# SCF done       -228.695975889697          0.000140890346
! CAM-B3LYP def2-SVP def2/J RIJCOSX Grid4 TightSCF
%maxcore 5000
%tddft
    Mode sTDDFT
    Ethresh 5.0
    maxcore 5000
end

%pal
  nprocs 6
  end
* xyz 0 1
   C       -7.77673        -1.15783        -7.35270
   C       -6.97282        -0.86568        -8.41856
   F       -7.47099        -0.22226        -9.48073
   C       -5.61221        -1.23639        -8.41467
   F       -4.84931        -0.93754        -9.47302
   C       -5.07463        -1.89439        -7.34414
   C       -5.87754        -2.21047        -6.23091
   C       -7.25303        -1.83517        -6.23280
   C       -8.07711        -2.13906        -5.12580
   C       -7.54149        -2.79467        -4.04751
   C       -6.16832        -3.17070        -4.05734
   C       -5.34897        -2.89438        -5.11419
   C       -5.83679        -3.87323        -2.80453
   O       -4.78693        -4.39434        -2.50970
   C       -7.11115        -3.91736        -2.02902
   C       -8.13753        -3.22274        -2.78722
   C       -9.40791        -2.95014        -2.35930
   C      -10.36292        -2.24188        -3.11978
   N      -11.17721        -1.67684        -3.69772
   C       -9.91669        -3.31861        -1.09485
   N      -10.37833        -3.57713        -0.07662
   C       -7.26903        -4.68670        -0.92396
   C       -6.18707        -5.25238        -0.17315
   S       -6.20158        -6.95623         0.14894
   C       -4.70290        -6.85286         1.02737
   C       -4.28093        -5.53579         1.13457
   C       -5.10097        -4.64162         0.42032
   C       -4.82315        -3.17365         0.39819
   C       -3.33023        -2.91082         0.56951
   F       -2.61935        -3.38113        -0.50858
   C       -2.80714        -3.59924         1.83337
   F       -3.45187        -3.00726         2.89998
   C       -3.04448        -5.10759         1.85046
   C       -4.06030        -8.03478         1.51451
   N       -3.99491        -9.20708         0.80281
   C       -4.36341        -9.42928        -0.57721
   C       -3.53348        -8.58604        -1.53974
   C       -3.32184       -10.21716         1.52016
   O       -3.12046       -11.32907         1.07452
   C       -2.99028        -9.60133         2.78111
   C       -3.43920        -8.25657         2.74226
   C       -3.15990        -7.66711         4.03673
   O       -3.36381        -6.55474         4.48196
   N       -2.53370        -8.68720         4.76184
   C       -2.13767        -8.49066         6.13734
   C       -3.14778        -9.09170         7.11070
   C       -2.43270        -9.85294         4.03782
   C       -1.84345       -11.03438         4.53359
   C       -1.75497       -12.18416         3.80266
   C       -1.14693       -13.36974         4.27241
   C       -0.53340       -13.61605         5.48600
   C       -0.05379       -14.95158         5.50890
   C       -0.41603       -15.54132         4.20145
   C       -1.06070       -14.59283         3.47870
   C       -0.13086       -16.83983         3.76273
   N        0.09700       -17.89490         3.37065
   C        0.61389       -15.57793         6.53801
   C        1.05246       -16.93282         6.59865
   C        1.60501       -17.17445         7.83773
   C        1.58214       -15.92688         8.58698
   C        1.00209       -14.96702         7.81850
   C        0.83821       -13.63066         8.19761
   N        0.72093       -12.53706         8.53066
   C        2.15253       -18.40581         8.28436
   C        2.34005       -18.81590         9.56760
   C        3.31323       -19.90221         9.87654
   O        3.82463       -20.66219         9.08975
   C        3.55661       -19.79519        11.33048
   C        4.46045       -20.46937        12.09998
   C        4.53993       -20.17819        13.48036
   C        3.68000       -19.18731        14.03782
   C        3.77129       -18.89558        15.41366
   C        4.67194       -19.55790        16.19963
   C        5.52079       -20.53887        15.64782
   C        5.45688       -20.84389        14.31708
   F        6.39476       -21.17065        16.44184
   F        4.75757       -19.27956        17.50637
   C        2.74765       -18.51105        13.21834
   C        2.68379       -18.81499        11.88483
   C        1.82065       -18.31029        10.82082
   C        0.61368       -17.68702        10.99962
   C       -0.31584       -17.46644         9.96034
   N       -1.13391       -17.32365         9.16819
   C        0.12233       -17.28501        12.25883
   N       -0.30372       -16.92478        13.26160
   H       -8.81508        -0.86571        -7.37165
   H       -4.03218        -2.17157        -7.35621
   H       -9.11494        -1.84932        -5.15993
   H       -4.31140        -3.19125        -5.09388
   H       -8.26446        -4.96381        -0.59749
   H       -5.33908        -2.69169         1.23428
   H       -5.17040        -2.72196        -0.52930
   H       -3.13671        -1.83155         0.62333
   H       -1.73989        -3.38477         1.96875
   H       -3.11561        -5.40702         2.90357
   H       -2.17938        -5.61415         1.41646
   H       -5.43108        -9.24342        -0.71760
   H       -4.17143       -10.49170        -0.75494
   H       -3.72191        -7.52303        -1.40867
   H       -3.78435        -8.85409        -2.56191
   H       -2.47347        -8.77234        -1.38344
   H       -2.08584        -7.40853         6.28511
   H       -1.14328        -8.91619         6.29504
   H       -4.11919        -8.62231         6.97594
   H       -2.81755        -8.92081         8.13115
   H       -3.25487       -10.16271         6.95396
   H       -1.43939       -11.01044         5.53488
   H       -2.16664       -12.20763         2.80225
   H       -0.42782       -12.92710         6.29947
   H       -1.45269       -14.69487         2.48366
   H        0.91328       -17.65955         5.82241
   H        2.01222       -15.77971         9.56091
   H        2.52859       -19.07437         7.51640
   H        5.10749       -21.21373        11.66152
   H        3.12668       -18.15012        15.85254
   H        6.11349       -21.59689        13.91023
   H        2.11361       -17.76056        13.66323
*
