# ORCA input file
# SCF done       -234.193820553286          0.000827909388
! CAM-B3LYP def2-SVP def2/J RIJCOSX Grid4 TightSCF
%maxcore 5000
%tddft
    Mode sTDDFT
    Ethresh 5.0
    maxcore 5000
end

%pal
  nprocs 6
  end
* xyz 0 1
   C       -2.37497        -2.88269        -7.13578
   C       -1.20541        -3.58051        -7.02118
   F       -0.04470        -3.01000        -7.36407
   C       -1.20497        -4.90657        -6.54179
   F       -0.04440        -5.56595        -6.43980
   C       -2.37478        -5.51661        -6.18518
   C       -3.59675        -4.82437        -6.29317
   C       -3.59816        -3.48251        -6.77451
   C       -4.81119        -2.76538        -6.88258
   C       -5.98532        -3.37108        -6.51922
   C       -5.97722        -4.71600        -6.05296
   C       -4.82052        -5.43308        -5.93820
   C       -7.35568        -5.14941        -5.76004
   O       -7.71335        -6.25797        -5.42895
   C       -8.21134        -3.96685        -6.05788
   C       -7.35674        -2.87698        -6.48817
   C       -7.75426        -1.58607        -6.71214
   C       -9.06610        -1.11128        -6.49501
   N      -10.09629        -0.65486        -6.27654
   C       -6.88688        -0.55375        -7.12786
   N       -6.22597         0.31991        -7.46922
   C       -9.57234        -3.99333        -6.09077
   C      -10.39999        -4.99902        -5.52850
   C      -11.52039        -5.56624        -6.11726
   N      -12.02873        -5.25893        -7.39424
   O      -13.08433        -5.76995        -7.71627
   O      -11.38601        -4.49486        -8.09644
   C      -12.05452        -6.58377        -5.25899
   C      -11.25268        -6.68505        -4.16499
   C      -10.20702        -5.70803        -4.25733
   C       -9.27645        -5.36904        -3.29251
   C       -8.74313        -4.06901        -3.06530
   C       -7.93950        -4.11555        -1.96492
   C       -7.87914        -5.45791        -1.47528
   N       -7.08056        -5.74182        -0.35460
   O       -7.24021        -6.78908         0.25748
   O       -6.26362        -4.89716        -0.03018
   C       -8.68223        -6.27904        -2.28803
   C       -8.80369        -7.66928        -2.44149
   C       -8.26456        -8.64651        -1.63787
   C       -8.45894       -10.01535        -1.86683
   N       -7.91500       -10.99375        -1.06915
   C       -7.06810       -10.79375         0.08642
   C       -7.86926       -10.40509         1.32516
   C       -8.29945       -12.27963        -1.46679
   O       -7.94541       -13.30015        -0.91653
   C       -9.15167       -12.05670        -2.62298
   C       -9.22332       -10.67439        -2.85362
   C      -10.09124       -10.45951        -3.99685
   O      -10.46388        -9.45297        -4.56008
   N      -10.49617       -11.75410        -4.37563
   C      -11.33787       -11.96476        -5.52986
   C      -10.53353       -12.43300        -6.73941
   C       -9.94899       -12.71944        -3.57145
   C      -10.22030       -14.09681        -3.69181
   C       -9.65612       -15.04186        -2.88724
   C       -9.96928       -16.41408        -2.97277
   C       -9.42501       -17.43963        -2.20616
   F       -8.51201       -17.22780        -1.26482
   C       -9.92874       -18.70333        -2.51476
   F       -9.57533       -19.80948        -1.85595
   C      -10.88764       -18.69997        -3.52110
   S      -11.14979       -17.07414        -4.06781
   C      -11.67277       -19.75881        -4.03876
   C      -11.45595       -21.10096        -4.02353
   C      -12.63021       -22.00690        -4.23279
   O      -13.72034       -21.68084        -4.63554
   C      -12.17384       -23.33609        -3.79060
   C      -12.89362       -24.48930        -3.65820
   C      -12.24553       -25.65193        -3.18532
   C      -10.86052       -25.59487        -2.85115
   C      -10.22265       -26.75703        -2.37294
   C      -10.92507       -27.92163        -2.23633
   C      -12.29438       -27.97735        -2.56865
   C      -12.94197       -26.86690        -3.03318
   F      -12.95682       -29.13110        -2.42409
   F      -10.31786       -29.02447        -1.78411
   C      -10.13958       -24.38840        -3.00414
   C      -10.78584       -23.27693        -3.47467
   C      -10.29925       -21.92968        -3.75855
   C       -8.99023       -21.58992        -3.97559
   C       -8.59952       -20.33272        -4.47410
   N       -8.28439       -19.30805        -4.88436
   C       -7.90807       -22.47888        -3.80440
   N       -6.99795       -23.16502        -3.67752
   H       -2.35728        -1.86827        -7.50248
   H       -2.35735        -6.53173        -5.82070
   H       -4.78171        -1.75377        -7.25408
   H       -4.84017        -6.45098        -5.57948
   H      -10.09628        -3.22020        -6.64405
   H      -12.93694        -7.15112        -5.48373
   H      -11.43388        -7.30366        -3.30874
   H       -9.03114        -3.18511        -3.60096
   H       -7.42391        -3.29638        -1.49914
   H       -9.36206        -7.98794        -3.31095
   H       -7.68880        -8.36660        -0.76954
   H       -6.31775       -10.03298        -0.13946
   H       -6.56597       -11.74973         0.25845
   H       -8.34857        -9.43841         1.19567
   H       -7.20197       -10.34407         2.17959
   H       -8.62962       -11.15484         1.53064
   H      -11.79861       -10.99747        -5.74789
   H      -12.12412       -12.68293        -5.28211
   H       -9.78298       -11.68989        -6.99684
   H      -11.19608       -12.56410        -7.58998
   H      -10.03288       -13.37706        -6.53661
   H      -10.92262       -14.41389        -4.45134
   H       -8.93339       -14.75967        -2.12955
   H      -12.63141       -19.46056        -4.45431
   H      -13.94300       -24.51354        -3.90954
   H       -9.17495       -26.73297        -2.11697
   H      -13.98980       -26.92582        -3.28269
   H       -9.09580       -24.36914        -2.73421
*
