# ORCA input file
# SCF done       -187.731283669816          0.000415948877
! CAM-B3LYP def2-SVP def2/J RIJCOSX Grid4 TightSCF
%maxcore 5000
%tddft
    Mode sTDDFT
    Ethresh 5.0
    maxcore 5000
end

%pal
  nprocs 6
  end
* xyz 0 1
   C       -1.45383         0.80671        -7.20118
   O       -2.69877         0.41801        -6.99505
   C       -2.66778        -0.73009        -6.27636
   C       -1.35754        -1.07814        -6.02194
   C       -0.55880        -0.07924        -6.63117
   C        0.89602         0.00636        -6.65148
   O        1.52856         0.89942        -7.15056
   C       -3.88817        -1.40604        -5.94959
   C       -5.02459        -1.53043        -6.71695
   N       -5.26254        -1.06168        -8.03074
   O       -6.41363        -1.09563        -8.42400
   O       -4.31640        -0.69185        -8.69816
   C       -5.98157        -2.36128        -6.02166
   C       -5.42232        -2.79416        -4.86713
   C       -4.11958        -2.19992        -4.73012
   C       -3.33114        -2.22174        -3.59822
   C       -2.43317        -1.20116        -3.15471
   C       -2.05459        -1.48065        -1.87708
   C       -2.65153        -2.71339        -1.46110
   N       -2.35482        -3.23826        -0.18895
   O       -1.39188        -2.76873         0.38933
   O       -3.06818        -4.11044         0.28450
   C       -3.42688        -3.22373        -2.51288
   C       -3.99753        -4.48351        -2.76423
   C       -4.34327        -5.45865        -1.86088
   C       -4.89316        -6.67909        -2.27698
   N       -5.31161        -7.65995        -1.41978
   C       -5.29373        -7.60318         0.02452
   C       -6.46287        -6.78884         0.57052
   C       -5.84251        -8.77483        -2.10041
   O       -6.25243        -9.77147        -1.55672
   C       -5.72670        -8.41045        -3.50467
   C       -5.13485        -7.15156        -3.59129
   C       -5.00786        -6.82426        -5.00230
   O       -4.58329        -5.83768        -5.56781
   N       -5.52215        -7.94477        -5.67598
   C       -5.60275        -7.94266        -7.11801
   C       -4.33617        -8.50794        -7.75747
   C       -5.97045        -8.90701        -4.80310
   C       -6.62583       -10.11694        -5.05419
   C       -6.67833       -10.83877        -6.22353
   C       -7.48050       -11.96984        -6.43174
   C       -8.59778       -12.42214        -5.70763
   N       -9.45192       -11.70124        -4.84824
   O       -9.34185       -10.48681        -4.79117
   O      -10.29301       -12.33948        -4.24259
   C       -8.90910       -13.74874        -6.11445
   C       -7.99805       -14.15314        -7.05152
   C       -7.12192       -13.06859        -7.34751
   C       -6.15408       -13.06480        -8.33909
   C       -5.70278       -11.95880        -9.12142
   C       -4.89875       -12.42621       -10.11399
   C       -4.76202       -13.85253        -9.97882
   N       -3.82754       -14.56128       -10.76074
   O       -3.19030       -13.91258       -11.57244
   O       -3.67532       -15.75492       -10.57212
   C       -5.52599       -14.28106        -8.90195
   C       -5.63481       -15.54799        -8.26921
   C       -5.60855       -16.76398        -8.87421
   C       -5.70892       -17.97797        -8.14736
   O       -5.64554       -18.00240        -6.79892
   C       -5.72038       -19.28268        -6.40818
   C       -5.83567       -20.11857        -7.47788
   C       -5.83716       -19.28710        -8.62621
   C       -5.98196       -19.70569       -10.01138
   O       -6.15241       -18.96824       -10.94893
   H       -1.28460         1.71163        -7.75195
   H       -1.01688        -1.94704        -5.49755
   H        1.39270        -0.84522        -6.14766
   H       -6.96073        -2.57622        -6.40492
   H       -5.90705        -3.38460        -4.11570
   H       -2.20008        -0.30773        -3.69819
   H       -1.42084        -0.89129        -1.24119
   H       -4.18163        -4.68988        -3.81090
   H       -4.21856        -5.28632        -0.80344
   H       -4.34234        -7.18489         0.36095
   H       -5.37255        -8.63756         0.36937
   H       -6.40851        -5.75603         0.23519
   H       -6.43727        -6.80201         1.65594
   H       -7.40583        -7.21726         0.23934
   H       -5.71517        -6.89758        -7.42217
   H       -6.49506        -8.49566        -7.41973
   H       -3.48848        -7.87385        -7.51055
   H       -4.44562        -8.52917        -8.83809
   H       -4.12235        -9.51489        -7.40435
   H       -7.10651       -10.51669        -4.17167
   H       -5.98466       -10.59802        -7.01251
   H       -9.74869       -14.30379        -5.74035
   H       -8.02036       -15.08267        -7.58608
   H       -6.04712       -10.94778        -9.02863
   H       -4.42103       -11.86145       -10.89213
   H       -5.79565       -15.51885        -7.19797
   H       -5.54548       -16.87426        -9.94584
   H       -5.67952       -19.47474        -5.35362
   H       -5.91778       -21.18564        -7.45763
   H       -5.94038       -20.80371       -10.14109
*
