# ORCA input file
# SCF done       -149.606016820152          0.000306846173
! CAM-B3LYP def2-SVP def2/J RIJCOSX Grid4 TightSCF
%maxcore 5000
%tddft
    Mode sTDDFT
    Ethresh 5.0
    maxcore 5000
end

%pal
  nprocs 6
  end
* xyz 0 1
   C       -1.11236        -0.80899        -2.32757
   C       -1.01407         0.45301        -2.90921
   C        0.14181         0.61880        -3.63933
   S        0.58221         2.06672        -4.49094
   C        2.19317         1.59685        -5.17983
   S        1.12435        -0.80627        -3.61272
   C       -0.03728        -1.63325        -2.60112
   C        0.19167        -2.96153        -2.17224
   C       -0.61052        -3.73292        -1.35341
   C       -0.00382        -4.99709        -1.16583
   C        1.25129        -4.97264        -1.94256
   C        1.35288        -3.75273        -2.53444
   C        2.18074        -6.00699        -2.07417
   N        2.96140        -6.84175        -2.20313
   C       -0.46048        -6.05349        -0.40051
   C        0.18661        -7.29400        -0.17894
   C       -0.57828        -8.06242         0.67982
   C       -1.76262        -7.29121         1.02055
   C       -1.71102        -6.09582         0.37521
   C       -2.68991        -5.10021         0.44380
   N       -3.51029        -4.29863         0.51742
   C       -0.31515        -9.34985         1.20281
   S       -1.25680        -9.92394         2.55077
   C       -0.34681       -11.40536         2.62286
   C        0.62813       -11.43782         1.62327
   C        0.63962       -10.29423         0.82161
   C        1.55739       -10.14959        -0.34809
   C        2.08833       -11.51356        -0.78453
   C        1.03035       -12.38639        -1.44227
   O        1.20204       -13.54066        -1.73610
   O       -0.11477       -11.73497        -1.66489
   C       -1.15149       -12.48227        -2.28484
   C        2.66644       -12.25879         0.42256
   C        1.55607       -12.59395         1.41729
   C       -0.61266       -12.38825         3.59837
   C       -1.57613       -12.26801         4.55358
   C       -1.85530       -13.21217         5.56592
   C       -2.81132       -13.06757         6.55449
   C       -2.78951       -14.20119         7.40602
   C       -1.74027       -15.09015         6.86892
   C       -1.19413       -14.49103         5.77854
   C       -1.35337       -16.33640         7.37129
   N       -1.00666       -17.36345         7.75384
   C       -3.56792       -14.43806         8.51796
   C       -3.53322       -15.56701         9.38417
   C       -4.46607       -15.40625        10.38001
   C       -5.13682       -14.13627        10.16209
   C       -4.61185       -13.54650         9.05460
   C       -5.01466       -12.31092         8.54149
   N       -5.37264       -11.29067         8.15080
   C       -4.75548       -16.30384        11.46179
   C       -5.74244       -16.07325        12.46220
   C       -5.81829       -17.07531        13.37792
   S       -6.91264       -17.12622        14.73847
   C       -6.45080       -18.70581        15.50242
   S       -4.66943       -18.34299        13.03464
   C       -4.10496       -17.49979        11.66069
   H       -1.94181        -1.12410        -1.72146
   H       -1.74993         1.22967        -2.81028
   H        2.55310         2.45835        -5.73283
   H        2.07022         0.74664        -5.84472
   H        2.87720         1.35545        -4.37121
   H       -1.54085        -3.43158        -0.91625
   H        2.15008        -3.41176        -3.17026
   H        1.14399        -7.54501        -0.58253
   H       -2.54799        -7.63598         1.66813
   H        2.40439        -9.51206        -0.07655
   H        1.03137        -9.66960        -1.17423
   H        2.87707       -11.37272        -1.53139
   H       -1.96198       -11.78227        -2.47020
   H       -1.48448       -13.28668        -1.62573
   H       -0.79696       -12.91948        -3.22013
   H        3.41798       -11.62669         0.89848
   H        3.14601       -13.18042         0.09270
   H        1.99540       -12.89461         2.37166
   H        0.97986       -13.44612         1.04168
   H        0.00558       -13.27410         3.56525
   H       -2.18449       -11.37151         4.56303
   H       -3.46594       -12.22614         6.66907
   H       -0.40543       -14.89495         5.17121
   H       -2.87227       -16.40121         9.26141
   H       -5.91862       -13.73237        10.77749
   H       -6.37241       -15.20527        12.50748
   H       -7.09145       -18.82189        16.37058
   H       -5.40832       -18.67313        15.80592
   H       -6.62137       -19.51516        14.79828
   H       -3.32118       -17.93216        11.07232
*
