# ORCA input file
# SCF done       -199.204565579354          0.000937045522
! CAM-B3LYP def2-SVP def2/J RIJCOSX Grid4 TightSCF
%maxcore 5000
%tddft
    Mode sTDDFT
    Ethresh 5.0
    maxcore 5000
end

%pal
  nprocs 6
  end
* xyz 0 1
   C        4.94938        -0.22734        -0.94865
   C        5.30114         0.54045        -2.21550
   O        6.07923         0.22691        -3.06262
   O        4.58738         1.68168        -2.25725
   C        3.65857         1.75037        -1.18325
   C        4.25684         0.83480        -0.09760
   C        3.26075         0.32473         0.93715
   C        2.00036        -0.25848         0.31202
   C        1.32161         0.67306        -0.68529
   C        2.26908         1.32147        -1.71010
   O        1.56769         2.46864        -2.17431
   C        0.59028         2.83859        -1.33754
   O       -0.10886         3.78690        -1.51761
   C        0.53834         1.87934        -0.13558
   C        1.12267         2.59464         1.03521
   C        0.49449         2.70522         2.21077
   C        1.00808         3.39861         3.35668
   S        0.04450         3.50224         4.79846
   C        1.27431         4.38965         5.64279
   C        2.38030         4.58781         4.80885
   C        2.21867         4.02885         3.52902
   C        3.55382         5.27320         5.16169
   N        4.53380         5.82092         5.40305
   C        1.04429         4.78188         6.98244
   C        1.95344         5.41048         7.77661
   C        1.67209         5.77322         9.11305
   N        2.58197         6.38710         9.93917
   C        3.91517         6.81714         9.58903
   C        3.90386         8.11220         8.78146
   C        2.05281         6.62528        11.22364
   O        2.67081         7.14996        12.12476
   C        0.70688         6.09955        11.14878
   C        0.49881         5.58687         9.85345
   C       -0.85226         5.07411         9.80460
   O       -1.48354         4.53880         8.91385
   N       -1.38002         5.32658        11.08566
   C       -2.71839         4.88896        11.40468
   C       -2.71785         3.60469        12.22992
   C       -0.45486         5.93214        11.90752
   C       -0.53415         6.35421        13.25297
   C       -1.57388         6.32768        14.13260
   C       -1.47351         6.78499        15.46920
   C       -2.49782         6.80027        16.39366
   C       -2.00781         7.29198        17.63731
   C       -0.57921         7.59897        17.41356
   C       -0.27712         7.30324        16.12482
   C        0.31522         8.14346        18.34205
   N        1.06275         8.60715        19.08146
   C       -2.69375         7.44971        18.81454
   C       -2.15663         7.85089        20.08691
   C       -3.16247         7.88775        21.00108
   C       -4.40017         7.52395        20.34374
   C       -4.13295         7.24330        19.03679
   C       -5.07407         6.86137        18.07715
   N       -5.86074         6.55336        17.29765
   C       -3.03351         8.27764        22.42775
   C       -3.98462         7.53516        23.37287
   O       -4.31397         6.39024        23.31400
   O       -4.42109         8.38255        24.32011
   C       -3.80146         9.65877        24.19377
   C       -3.41273         9.74057        22.71205
   C       -2.35838        10.78598        22.38626
   C       -1.13351        10.69131        23.28730
   C       -1.46125        10.67735        24.77712
   C       -2.60984         9.73023        25.17489
   O       -3.06683        10.21754        26.42783
   C       -2.71150        11.49823        26.62757
   O       -3.01715        12.10892        27.60617
   C       -1.87533        12.00067        25.45071
   C       -2.63810        12.97826        24.60003
   C       -3.92269        13.25955        24.71733
   H        5.84386        -0.64707        -0.49418
   H        4.28098        -1.04750        -1.21535
   H        3.60825         2.79971        -0.87873
   H        5.03233         1.40819         0.42302
   H        2.99005         1.14128         1.60686
   H        3.74932        -0.44289         1.53994
   H        1.28922        -0.50784         1.10103
   H        2.24820        -1.18654        -0.20720
   H        0.59807         0.07791        -1.25501
   H        2.43074         0.67615        -2.58033
   H       -0.49785         1.61671         0.08517
   H        2.07184         3.08491         0.87621
   H       -0.47357         2.24172         2.34596
   H        2.97697         4.09763         2.76984
   H        0.06643         4.54707         7.38438
   H        2.93520         5.64020         7.39298
   H        4.42540         6.02312         9.03729
   H        4.43552         6.98033        10.53696
   H        3.37556         7.98233         7.83981
   H        4.92422         8.41491         8.56560
   H        3.41762         8.90182         9.34927
   H       -3.20532         4.70105        10.44288
   H       -3.25644         5.69260        11.91296
   H       -2.25589         2.80123        11.66132
   H       -3.73920         3.31960        12.46626
   H       -2.16524         3.73189        13.15807
   H        0.40815         6.76577        13.59160
   H       -2.54476         5.95002        13.85029
   H       -3.50616         6.47769        16.22193
   H        0.68388         7.42890        15.66232
   H       -1.12130         8.05960        20.26985
   H       -5.35861         7.46686        20.82529
   H       -2.00937         8.07848        22.76179
   H       -4.54121        10.41049        24.48131
   H       -4.31917         9.96756        22.13769
   H       -2.81628        11.77044        22.48332
   H       -2.04875        10.66020        21.34669
   H       -0.46566        11.52823        23.07917
   H       -0.58190         9.77890        23.05084
   H       -0.56810        10.32575        25.30758
   H       -2.25416         8.70797        25.34543
   H       -0.99886        12.52616        25.84180
   H       -2.03103        13.49742        23.86907
   H       -4.55301        12.79204        25.45499
   H       -4.39552        13.99187        24.08519
*
