# ORCA input file
# SCF done       -207.060723145122          0.000898234142
! CAM-B3LYP def2-SVP def2/J RIJCOSX Grid4 TightSCF
%maxcore 5000
%tddft
    Mode sTDDFT
    Ethresh 5.0
    maxcore 5000
end

%pal
  nprocs 6
  end
* xyz 0 1
   C        0.69958        -2.02805        -6.92744
   O       -0.55953        -2.40937        -6.76360
   C       -1.25810        -2.05751        -7.87917
   C       -0.40944        -1.42908        -8.76904
   C        0.85573        -1.41091        -8.14224
   C        2.11095        -0.83339        -8.69607
   F        3.13886        -0.96356        -7.84151
   F        2.48715        -1.41841        -9.84169
   F        1.99518         0.47834        -8.95833
   C       -2.64491        -2.40909        -7.92381
   C       -3.44487        -2.76386        -8.99281
   N       -3.17903        -2.71129       -10.37664
   O       -3.88817        -3.38747       -11.09732
   O       -2.27535        -1.99877       -10.77434
   C       -4.67892        -3.32777        -8.49554
   C       -4.63887        -3.35166        -7.14228
   C       -3.41541        -2.73585        -6.70981
   C       -3.12231        -2.32421        -5.42569
   C       -2.38666        -1.15797        -5.05438
   C       -2.54721        -0.95172        -3.71771
   C       -3.33707        -2.00839        -3.16215
   N       -3.60653        -2.02778        -1.78152
   O       -2.96560        -1.26428        -1.08234
   O       -4.46937        -2.77701        -1.34680
   C       -3.68848        -2.90260        -4.18600
   C       -4.18935        -4.21335        -4.20377
   C       -4.78249        -4.92384        -3.18680
   C       -5.18218        -6.25472        -3.36548
   N       -5.79826        -7.00515        -2.39519
   C       -6.16839        -6.55626        -1.07098
   C       -7.43585        -5.70752        -1.09189
   C       -6.09982        -8.29839        -2.83718
   O       -6.64925        -9.13977        -2.15580
   C       -5.60325        -8.33835        -4.20453
   C       -5.05056        -7.08766        -4.50048
   C       -4.53699        -7.13538        -5.86120
   O       -3.97022        -6.30232        -6.53832
   N       -4.82033        -8.43647        -6.29614
   C       -4.47969        -8.86917        -7.63407
   C       -5.70045        -8.96101        -8.54423
   C       -5.45315        -9.17750        -5.33176
   C       -5.82929       -10.51809        -5.50349
   C       -6.45760       -11.22376        -4.50904
   C       -6.91770       -12.55340        -4.54353
   C       -7.35581       -13.39131        -5.57955
   N       -7.37070       -13.20845        -6.97490
   O       -8.06505       -13.97045        -7.62286
   O       -6.70132       -12.31699        -7.47617
   C       -7.97479       -14.55138        -5.01220
   C       -7.94888       -14.45970        -3.65426
   C       -7.27221       -13.25373        -3.29053
   C       -6.87033       -12.88828        -2.02202
   C       -5.71801       -12.11415        -1.68111
   C       -5.54046       -12.17589        -0.33676
   C       -6.60115       -12.95631         0.25053
   N       -6.67732       -13.08216         1.65356
   O       -6.01287       -12.29817         2.30612
   O       -7.37420       -13.95476         2.14031
   C       -7.45467       -13.39432        -0.75228
   C       -8.74557       -13.98336        -0.73596
   C       -9.31289       -14.74569         0.23544
   C      -10.63207       -15.26345         0.10449
   O      -11.39917       -14.97123        -0.96846
   C      -12.57385       -15.59091        -0.82127
   C      -12.61084       -16.30534         0.34175
   C      -11.35347       -16.10149         0.94833
   C      -10.89454       -16.67404         2.24436
   F       -9.68356       -17.24768         2.14918
   F      -10.80515       -15.74893         3.21308
   F      -11.73212       -17.61900         2.69351
   H        1.40175        -2.23463        -6.14349
   H       -0.65837        -1.03462        -9.73171
   H       -5.47238        -3.65665        -9.13911
   H       -5.43796        -3.64706        -6.49214
   H       -1.90200        -0.49034        -5.73952
   H       -2.16758        -0.13405        -3.13390
   H       -4.05995        -4.72406        -5.14880
   H       -4.96279        -4.45702        -2.23107
   H       -5.33927        -5.99570        -0.63349
   H       -6.33878        -7.46071        -0.48099
   H       -7.28707        -4.79790        -1.66818
   H       -7.70139        -5.43181        -0.07583
   H       -8.25883        -6.27028        -1.52628
   H       -3.96567        -9.83234        -7.58451
   H       -3.78661        -8.11679        -8.02027
   H       -6.37053        -9.75671        -8.23009
   H       -5.37324        -9.17101        -9.55817
   H       -6.24154        -8.01781        -8.54430
   H       -5.59940       -10.99263        -6.44331
   H       -6.62424       -10.71639        -3.56676
   H       -8.37791       -15.35110        -5.60470
   H       -8.26439       -15.22056        -2.96752
   H       -5.04170       -11.67075        -2.38420
   H       -4.74766       -11.73941         0.24093
   H       -9.33525       -13.79916        -1.62547
   H       -8.77833       -15.00308         1.13693
   H      -13.30329       -15.45755        -1.59584
   H      -13.41477       -16.90079         0.72205
*
