# ORCA input file
# SCF done       -148.478072226618          0.000500043298
! CAM-B3LYP def2-SVP def2/J RIJCOSX Grid4 TightSCF
%maxcore 5000
%tddft
    Mode sTDDFT
    Ethresh 5.0
    maxcore 5000
end

%pal
  nprocs 6
  end
* xyz 0 1
   C        7.64672        -3.07057        -0.67463
   O        6.93637        -1.93587        -0.69699
   C        7.71047        -0.96574        -0.15301
   C        8.92796        -1.50564         0.21536
   C        8.88569        -2.87533        -0.12372
   C        9.95972        -3.88508         0.07602
   C        7.22246         0.36359        -0.02959
   C        5.98389         0.74376        -0.43007
   C        5.46605         2.05247        -0.30307
   S        6.40775         3.32742         0.39830
   C        5.13224         4.49553         0.24444
   C        4.00995         3.91462        -0.36662
   C        4.19413         2.52615        -0.66884
   C        3.13026         1.80533        -1.27160
   C        3.20175         0.43762        -1.61613
   N        3.16382        -0.66413        -1.93507
   C        1.93987         2.44900        -1.56170
   C        1.77379         3.80677        -1.29607
   C        2.78843         4.54666        -0.71626
   C        2.55920         5.93196        -0.56029
   N        2.31029         7.05100        -0.51437
   C        5.26395         5.80222         0.75351
   C        6.42803         6.33619         1.20508
   C        6.57859         7.63363         1.75757
   S        8.12177         8.42231         1.57321
   C        7.56575         9.90131         2.31662
   C        6.23613         9.76621         2.71003
   C        5.69065         8.48956         2.40152
   N        4.39385         8.14366         2.87342
   O        4.13138         6.96578         3.03472
   O        3.63670         9.05757         3.12776
   C        5.52333        10.76389         3.39934
   N        5.01019        11.61009         3.98140
   C        8.46872        10.98436         2.40332
   C        8.20243        12.21399         2.92179
   C        9.12081        13.27692         2.94828
   S       10.74851        13.19029         2.28524
   C       11.12607        14.84495         2.68346
   C       10.02889        15.43122         3.31562
   C        8.92506        14.54975         3.45492
   S        7.61591        15.36086         4.24072
   C        8.64805        16.78388         4.31168
   N        9.82028        16.68109         3.81525
   C       12.37359        15.41118         2.35819
   C       12.67970        16.70821         2.64001
   C       13.90280        17.33175         2.32177
   O       14.90104        16.65104         1.69097
   C       15.92728        17.50589         1.51721
   C       15.63391        18.74244         2.01917
   O       16.39592        19.86803         2.03863
   C       17.67419        19.75104         1.45840
   C       14.31005        18.65107         2.55263
   N       13.56431        19.61305         3.16170
   C       13.93728        20.91400         3.39902
   C       13.14751        21.79506         4.00460
   H        7.17880        -3.95010        -1.07149
   H        9.74236        -0.98070         0.67184
   H       10.23966        -3.93691         1.12696
   H       10.84674        -3.61206        -0.49391
   H        9.62241        -4.86582        -0.24786
   H        7.90165         1.07671         0.41674
   H        5.33739        -0.00032        -0.87017
   H        1.13467         1.89064        -2.01505
   H        0.84561         4.29329        -1.55533
   H        4.36139         6.39138         0.77334
   H        7.34638         5.77518         1.08067
   H        9.45644        10.80067         1.99800
   H        7.23190        12.43328         3.34280
   H        8.27492        17.68397         4.75978
   H       13.09539        14.78063         1.86070
   H       11.93487        17.31152         3.13831
   H       16.79851        17.11822         1.02941
   H       18.13892        20.72993         1.55894
   H       17.60434        19.48401         0.39957
   H       18.27762        19.00202         1.98002
   H       12.64143        19.33789         3.47030
   H       14.92715        21.16709         3.05493
   H       12.16070        21.53297         4.34727
   H       13.47108        22.80331         4.17554
*
