# ORCA input file
# SCF done       -134.206305422570          0.000518952864
! CAM-B3LYP def2-SVP def2/J RIJCOSX Grid4 TightSCF
%maxcore 5000
%tddft
    Mode sTDDFT
    Ethresh 5.0
    maxcore 5000
end

%pal
  nprocs 6
  end
* xyz 0 1
   C       -1.09690         0.61933         0.19831
   S       -0.90268         2.22999         0.74028
   C        0.78024         2.23084         0.26098
   C        1.13680         1.00314        -0.26769
   C        0.05527         0.09006        -0.30547
   C        0.16408        -1.31676        -0.82019
   C        0.08842        -2.30879         0.34575
   C        1.45559        -1.47970        -1.62706
   C        2.64745        -0.88747        -0.88441
   C        2.49981         0.62741        -0.75574
   C        1.49837         3.44094         0.47768
   C        2.71965         3.76881        -0.00546
   C        3.39232         4.99245         0.26625
   S        4.88517         5.31780        -0.55312
   C        5.07185         6.85715         0.25278
   C        3.99902         7.10481         1.10049
   C        3.06859         6.04793         1.11685
   O        1.93191         6.02095         1.87464
   C        2.11558         6.14445         3.27667
   C        2.31481         7.57674         3.76796
   C        3.66554         8.16737         3.37371
   C        3.79491         8.37712         1.86229
   C        6.20137         7.66907         0.01334
   C        7.20052         7.35576        -0.85207
   C        8.35487         8.13742        -1.08860
   S        9.53910         7.56566        -2.23005
   C       10.58545         8.93876        -1.97030
   C       10.01821         9.80254        -1.03847
   C        8.76339         9.35287        -0.54246
   C        8.04692        10.09860         0.40524
   N        7.48448        10.73110         1.18165
   C       10.57610        11.01381        -0.60007
   N       10.99641        12.01035        -0.21564
   C       11.80732         9.00086        -2.68130
   C       12.76446         9.95308        -2.52508
   C       13.99302        10.01048        -3.21820
   S       15.15249        11.20702        -2.69864
   C       16.34850        10.71014        -3.86766
   C       15.82939         9.67059        -4.62188
   C       14.51482         9.26391        -4.27858
   C       14.06454         8.20891        -5.12099
   C       14.98433         7.83013        -6.03974
   C       14.86276         6.77113        -7.07249
   S       16.47650         8.75026        -5.93396
   C       17.61803        11.32628        -3.94587
   C       18.03493        12.43089        -3.04491
   C       19.27705        12.80085        -3.34408
   C       19.76295        11.95085        -4.48138
   O       20.84729        12.00473        -5.01647
   C       18.64408        11.04875        -4.79289
   H       -2.05663         0.14744         0.27579
   H       -0.69014        -1.51459        -1.47879
   H        0.88387        -2.12765         1.06404
   H        0.17662        -3.32892        -0.02130
   H       -0.86198        -2.20868         0.86406
   H        1.34684        -0.96902        -2.58697
   H        1.62539        -2.53890        -1.82834
   H        3.57114        -1.11504        -1.41970
   H        2.72178        -1.33368         0.10817
   H        2.66427         1.08903        -1.73570
   H        3.25864         1.01556        -0.07216
   H        0.97674         4.17663         1.07336
   H        3.25118         3.10232        -0.66648
   H        1.19558         5.73595         3.70490
   H        2.95939         5.51790         3.59584
   H        2.22590         7.56816         4.85605
   H        1.51210         8.19919         3.36695
   H        3.77949         9.13579         3.86389
   H        4.47234         7.51920         3.72485
   H        4.61898         9.06197         1.66680
   H        2.87726         8.84899         1.49650
   H        6.26245         8.58891         0.57459
   H        7.13416         6.43283        -1.41442
   H       11.96837         8.19100        -3.37652
   H       12.61272        10.73496        -1.79401
   H       13.09366         7.75336        -5.06294
   H       15.62807         6.00896        -6.92811
   H       15.00018         7.19240        -8.06788
   H       13.88330         6.30246        -7.01919
   H       17.38640        12.82773        -2.28399
   H       19.87706        13.56491        -2.88844
   H       18.67839        10.30885        -5.56871
*
