# ORCA input file
# SCF done       -140.544229148936          0.000547327646
! CAM-B3LYP def2-SVP def2/J RIJCOSX Grid4 TightSCF
%maxcore 5000
%tddft
    Mode sTDDFT
    Ethresh 5.0
    maxcore 5000
end

%pal
  nprocs 6
  end
* xyz 0 1
   O        1.30875         5.60451        -1.33231
   C        2.05906         6.55035        -0.71718
   N        3.04621         6.96573        -1.43861
   C        2.96597         6.25848        -2.61349
   C        1.88172         5.42088        -2.52529
   C        3.91437         6.44215        -3.70208
   O        3.88561         5.84708        -4.74845
   C        1.67777         7.04358         0.62107
   S        0.25158         8.21256         0.41303
   C       -0.89606         7.07162         1.24960
   C       -0.03843         6.40215         2.32151
   C        1.21533         5.93356         1.56886
   C       -0.82316         5.20090         2.88952
   O       -0.86191         4.13807         2.31723
   N       -1.51590         5.48352         4.00611
   N        0.24831         7.39712         3.34806
   C        1.27531         7.18426         4.24427
   S        1.43453         5.67777         5.09538
   C        2.83960         6.28525         5.94278
   C        3.12425         7.58881         5.58580
   C        2.22713         8.09937         4.62563
   C        2.37466         9.47010         4.03933
   C        3.84711         9.87090         4.10939
   C        4.66093         8.95248         3.21150
   O        4.19667         8.10295         2.49443
   O        5.96436         9.21313         3.29913
   C        6.82232         8.41268         2.49535
   C        4.32815         9.79596         5.56192
   C        4.30620         8.35758         6.08065
   C        3.48265         5.39963         6.83211
   S        4.98349         5.82458         7.70528
   C        4.93112         4.25780         8.40834
   C        3.81961         3.55326         7.94320
   N        3.03965         4.19786         7.08087
   C        3.76108         2.18742         8.54860
   C        4.98177         2.20760         9.42152
   C        5.64113         3.43643         9.31221
   S        7.04373         3.51528        10.29015
   C        6.75504         1.88011        10.86271
   C        5.61295         1.33427        10.29580
   C        7.66386         1.31547        11.79309
   C        7.57790         0.07409        12.32051
   C        8.53753        -0.41571        13.25409
   N        9.58264         0.20192        13.72762
   C       10.17835        -0.68485        14.58282
   C        9.43428        -1.84190        14.58518
   O        8.40236        -1.67912        13.75250
   C       11.39085        -0.36696        15.32056
   O       11.94864        -1.11262        16.08549
   H        1.46020         4.70584        -3.20110
   H        4.68402         7.20017        -3.47366
   H        2.50853         7.62231         1.02751
   H       -1.27058         6.33898         0.53551
   H       -1.72188         7.64655         1.66288
   H        0.94671         5.03504         1.01082
   H        2.01648         5.68457         2.26423
   H       -1.36920         6.35397         4.48795
   H       -2.00468         4.73740         4.47234
   H        0.31540         8.32241         2.93063
   H        1.77154        10.19404         4.59486
   H        2.04226         9.47846         2.99839
   H        3.98211        10.89147         3.73703
   H        7.82646         8.80119         2.64279
   H        6.53083         8.48120         1.44561
   H        6.76591         7.36790         2.80751
   H        3.66825        10.41798         6.16973
   H        5.33973        10.19359         5.64165
   H        4.31953         8.36016         7.17436
   H        5.21416         7.83525         5.75945
   H        3.80767         1.40750         7.78655
   H        2.84325         2.03875         9.12000
   H        5.26771         0.34198        10.52040
   H        8.49406         1.93499        12.10305
   H        6.78306        -0.60899        12.06478
   H        9.54466        -2.77123        15.10475
   H       11.76543         0.65038        15.11021
*
