# ORCA input file
# SCF done       -137.120000629453          0.000996606781
! CAM-B3LYP def2-SVP def2/J RIJCOSX Grid4 TightSCF
%maxcore 5000
%tddft
    Mode sTDDFT
    Ethresh 5.0
    maxcore 5000
end

%pal
  nprocs 6
  end
* xyz 0 1
   C        2.80032        -1.87961        -3.58229
   S        3.02982        -0.31392        -4.34648
   C        4.80605        -0.48766        -4.30465
   O        5.58534         0.31949        -4.71933
   N        5.11524        -1.68729        -3.72375
   C        4.07894        -2.49580        -3.29829
   O        4.27143        -3.57498        -2.76396
   C        6.49778        -2.08350        -3.56657
   C        1.54123        -2.36587        -3.36119
   C        1.12193        -3.58020        -2.80120
   S        2.19469        -4.78370        -2.15479
   C        0.89948        -5.85445        -1.75066
   C       -0.34700        -5.31659        -2.13600
   C       -0.22436        -4.00951        -2.69754
   C       -1.40145        -3.31856        -3.07969
   C       -1.42930        -2.01271        -3.61936
   N       -1.56814        -0.96178        -4.05914
   C       -2.63910        -3.92612        -2.92574
   C       -2.74837        -5.22345        -2.43901
   C       -1.62018        -5.92978        -2.05443
   C       -1.81234        -7.27976        -1.67999
   N       -2.05208        -8.37899        -1.45839
   C        1.14500        -7.07443        -1.08537
   C        2.40230        -7.53752        -0.84143
   C        2.72950        -8.74064        -0.18135
   S        4.38742        -9.28530        -0.20631
   C        4.00856       -10.74891         0.65846
   C        2.64933       -10.78346         0.97732
   C        1.93439        -9.65005         0.51353
   C        0.57895        -9.45686         0.83317
   N       -0.51078        -9.31073         1.15995
   C        2.02279       -11.79931         1.71677
   N        1.48654       -12.61295         2.32295
   C        5.04269       -11.67440         0.91581
   C        4.86685       -12.96003         1.33149
   C        5.90817       -13.87582         1.56970
   S        5.51108       -15.58453         1.65600
   C        7.16949       -16.05600         1.85150
   C        7.96775       -14.92840         1.88467
   C        7.28437       -13.69763         1.72966
   C        8.18194       -12.59930         1.82902
   C        9.46799       -12.97957         2.02929
   C       10.65807       -12.10698         2.19031
   S        9.67109       -14.72156         2.10508
   C        7.60778       -17.39947         1.93957
   O        8.93913       -17.61783         2.07050
   C        9.12976       -18.95372         2.11524
   C        7.91413       -19.59893         2.01372
   C        6.92394       -18.60877         1.89966
   C        5.45858       -18.80106         1.76034
   C       10.45715       -19.48795         2.24666
   C       11.55248       -18.73583         2.33615
   H        6.96914        -2.18801        -4.54400
   H        6.50374        -3.03707        -3.04133
   H        7.03617        -1.32945        -2.99297
   H        0.74264        -1.71190        -3.68588
   H       -3.52816        -3.38421        -3.21160
   H       -3.71775        -5.69276        -2.36875
   H        0.29092        -7.65079        -0.76370
   H        3.24532        -6.96602        -1.21089
   H        6.03986       -11.32391         0.69359
   H        3.86367       -13.34709         1.44353
   H        7.88650       -11.56748         1.78201
   H       11.13191       -12.28571         3.15521
   H       10.37036       -11.06047         2.12727
   H       11.39507       -12.31894         1.41621
   H        7.75819       -20.65873         2.01946
   H        5.21625       -19.85993         1.77297
   H        5.10334       -18.36753         0.82560
   H        4.92791       -18.30567         2.57300
   H       10.51108       -20.56712         2.26825
   H       11.49135       -17.66094         2.31651
   H       12.53055       -19.17179         2.43409
*
