# ORCA input file
# SCF done       -124.463396664738          0.000445273580
! CAM-B3LYP def2-SVP def2/J RIJCOSX Grid4 TightSCF
%maxcore 5000
%tddft
    Mode sTDDFT
    Ethresh 5.0
    maxcore 5000
end

%pal
  nprocs 6
  end
* xyz 0 1
   C        2.30143        -3.66710         0.87535
   C        3.50236        -3.21742         1.50378
   C        4.02384        -2.17581         0.81284
   C        3.16200        -1.88916        -0.33269
   O        3.33265        -1.02388        -1.16455
   C        2.02963        -2.90706        -0.24430
   C        0.91882        -3.09801        -1.07679
   S       -0.16527        -4.40423        -0.64205
   C       -1.25710        -4.08959        -1.96382
   C       -0.77517        -2.99890        -2.73357
   C        0.43616        -2.44476        -2.23916
   C        0.99807        -1.35007        -2.91623
   C        0.39433        -0.82054        -4.02683
   C        0.98014         0.34743        -4.75071
   C       -0.81822        -1.38285        -4.51148
   O       -1.33065        -0.77974        -5.61283
   C       -2.53423        -1.26329        -6.15633
   C       -1.39019        -2.46060        -3.86964
   C       -2.43077        -4.80991        -2.12881
   C       -2.83678        -5.80223        -1.25408
   C       -4.03487        -6.50272        -1.30487
   C       -4.93549        -6.55479        -2.45675
   C       -5.87162        -7.50169        -2.29203
   C       -5.66458        -8.14324        -0.98462
   O       -6.27527        -9.06620        -0.48271
   C       -4.52729        -7.42173        -0.35300
   C       -4.20274        -7.71753         0.96409
   S       -4.78841        -9.22504         1.61830
   C       -3.95820        -8.99226         3.13046
   C       -3.30399        -7.73378         3.15438
   C       -3.47530        -6.99640         1.95460
   C       -3.00993        -5.67950         1.90208
   C       -2.29648        -5.11876         2.94057
   C       -1.72592        -3.74297         2.76769
   C       -2.08107        -5.88441         4.11252
   O       -1.34609        -5.45826         5.18789
   C       -1.66124        -4.21423         5.78419
   C       -2.59471        -7.16356         4.21285
   C       -4.01032        -9.92960         4.16371
   C       -4.73164       -11.09440         4.11660
   C       -4.81068       -12.03550         5.16315
   C       -5.63309       -13.26678         5.05445
   C       -5.54335       -13.97132         6.18057
   C       -4.63919       -13.23901         7.12367
   O       -4.32679       -13.57965         8.24592
   C       -4.22405       -12.03425         6.39865
   H        1.70360        -4.48647         1.23387
   H        3.91163        -3.66236         2.39376
   H        4.91637        -1.61950         1.02363
   H        1.91638        -0.91908        -2.55602
   H        1.89936         0.67247        -4.27280
   H        0.26927         1.17229        -4.76554
   H        1.18598         0.08051        -5.78613
   H       -2.74599        -0.62801        -7.01473
   H       -3.35801        -1.18720        -5.43920
   H       -2.43615        -2.30103        -6.49090
   H       -2.30731        -2.89921        -4.22683
   H       -3.07190        -4.52957        -2.95144
   H       -2.15382        -6.05290        -0.45332
   H       -4.81211        -5.93557        -3.32718
   H       -6.64633        -7.79254        -2.97586
   H       -3.22004        -5.07402         1.03558
   H       -1.74973        -3.46197         1.71743
   H       -0.69134        -3.71814         3.10455
   H       -2.29081        -2.99956         3.32889
   H       -1.45530        -4.33127         6.84904
   H       -2.71573        -3.96220         5.65257
   H       -1.03843        -3.40515         5.39406
   H       -2.43552        -7.70491         5.13138
   H       -3.44622        -9.70391         5.05748
   H       -5.29718       -11.30913         3.21825
   H       -6.19973       -13.50396         4.17126
   H       -6.01262       -14.90460         6.42751
   H       -3.56520       -11.29854         6.81764
*
