# ORCA input file
# SCF done        -95.312369980260          0.001630332786
! CAM-B3LYP def2-SVP def2/J RIJCOSX Grid4 TightSCF
%maxcore 5000
%tddft
    Mode sTDDFT
    Ethresh 5.0
    maxcore 5000
end

%pal
  nprocs 6
  end
* xyz 0 1
   C        0.22491        -1.87043         3.79407
   C        1.18324        -1.25705         4.67811
   C        2.29715        -0.92337         3.99505
   C        2.11892        -1.30743         2.58688
   O        2.88883        -1.12411         1.67436
   C        0.73451        -1.94260         2.52693
   C        0.08935        -2.48124         1.40009
   S       -1.59066        -2.96434         1.55700
   C       -1.70326        -3.53696        -0.09367
   C       -0.47045        -3.33554        -0.70887
   C        0.53733        -2.76134         0.10542
   C        1.77320        -2.63892        -0.58412
   C        1.71997        -3.09905        -1.85580
   C        2.80498        -3.13450        -2.86598
   S        0.13000        -3.71163        -2.28732
   C       -2.90552        -4.00176        -0.65944
   C       -3.12425        -4.00538        -2.11413
   C       -4.39084        -4.32343        -2.39354
   C       -5.11541        -4.56655        -1.12532
   O       -6.27130        -4.89888        -1.00056
   C       -4.09927        -4.36059        -0.04411
   C       -4.37501        -4.69333         1.29955
   S       -3.19499        -5.48982         2.31678
   C       -4.30938        -5.66014         3.65867
   C       -5.53076        -5.11840         3.29631
   C       -5.58898        -4.58704         1.98196
   C       -6.85343        -4.00518         1.69908
   C       -7.72571        -4.10615         2.72868
   C       -9.12975        -3.63175         2.79269
   S       -7.03549        -4.91685         4.12790
   C       -3.89105        -6.26798         4.86168
   C       -4.77393        -6.48301         6.03699
   C       -4.07972        -7.07499         7.00568
   C       -2.67382        -7.28881         6.52498
   O       -1.76526        -7.79702         7.14452
   C       -2.65286        -6.74820         5.16202
   H       -0.73992        -2.22912         4.10500
   H        1.00551        -1.10476         5.72801
   H        3.18801        -0.45249         4.36284
   H        2.65573        -2.21891        -0.14072
   H        3.72401        -2.74596        -2.43539
   H        2.53914        -2.53224        -3.73486
   H        2.97571        -4.15530        -3.20956
   H       -2.35640        -3.74997        -2.82054
   H       -4.86323        -4.38782        -3.35489
   H       -7.10216        -3.55147         0.75870
   H       -9.39630        -3.13336         1.86398
   H       -9.26353        -2.93706         3.62224
   H       -9.80811        -4.47022         2.94991
   H       -5.80774        -6.18980         6.05270
   H       -4.41489        -7.36970         7.98161
   H       -1.78588        -6.74605         4.52896
*
