# ORCA input file
# SCF done       -160.313634731663          0.000348134105
! CAM-B3LYP def2-SVP def2/J RIJCOSX Grid4 TightSCF
%maxcore 5000
%tddft
    Mode sTDDFT
    Ethresh 5.0
    maxcore 5000
end

%pal
  nprocs 6
  end
* xyz 0 1
   C        0.98984         1.25089        -3.69790
   S        1.25808         0.00441        -2.56734
   C        2.73390        -0.48006        -3.36327
   C        2.97038         0.32511        -4.46393
   C        1.97202         1.31565        -4.65524
   C        1.93573         2.28049        -5.68550
   N        1.85858         3.08337        -6.49764
   C        4.16827         0.14266        -5.34487
   F        5.31594         0.29233        -4.66246
   F        4.19957        -1.08329        -5.89451
   F        4.21040         1.01434        -6.35641
   C        3.53112        -1.55600        -2.88658
   C        3.21272        -2.29845        -1.79690
   C        4.02423        -3.35721        -1.32456
   C        5.23080        -3.84896        -1.79934
   C        5.65057        -4.91433        -0.95173
   C        4.65077        -5.08638         0.08768
   O        4.58344        -5.86137         1.01853
   N        3.70407        -4.10983        -0.21069
   C        6.85503        -5.37239        -1.43934
   O        7.20686        -4.66194        -2.54194
   C        6.24045        -3.69485        -2.82354
   O        6.34049        -2.94611        -3.75491
   C        7.71685        -6.40487        -0.95930
   O        8.84523        -6.56525        -1.71548
   C        9.77284        -7.47866        -1.32520
   C       10.94030        -7.65066        -2.01551
   F       11.30807        -6.99246        -3.10673
   S       11.98002        -8.85851        -1.33919
   C        7.38480        -7.11132         0.14951
   S        8.32387        -8.36738         0.87190
   C        9.70396        -8.34803        -0.21257
   C       10.81664        -9.16571        -0.06469
   C       11.00908       -10.11025         0.95653
   C       12.10166       -10.91514         1.15263
   C       12.25836       -11.85409         2.20625
   C       13.44229       -12.52404         2.18516
   C       14.28727       -12.15219         1.11415
   S       13.52496       -10.92307         0.13111
   C       15.54851       -12.63331         0.81079
   C       16.29557       -13.61823         1.49365
   C       17.51261       -13.86322         0.93244
   C       17.78822       -13.08481        -0.21916
   S       16.44325       -12.02872        -0.56731
   C       18.94909       -13.14704        -0.96017
   C       19.26977       -12.40378        -2.09315
   S       18.21899       -11.19984        -2.82672
   C       19.42583       -10.80163        -4.15226
   O       19.19292        -9.97945        -4.99107
   C       20.57305       -11.64250        -3.92770
   C       20.46507       -12.50253        -2.80694
   C       21.60350       -13.33826        -2.58123
   O       21.83821       -14.16459        -1.74053
   S       22.81072       -12.93249        -3.91136
   C       21.75942       -11.73961        -4.63116
   C       22.11264       -10.98306        -5.79117
   C       23.27367       -11.10036        -6.43855
   H        0.12827         1.88392        -3.61735
   H        4.43895        -1.77906        -3.43185
   H        2.30535        -2.08834        -1.24353
   H        2.87190        -3.97516         0.34304
   H        6.46189        -6.90835         0.67033
   H       10.19667       -10.19851         1.66700
   H       11.48822       -11.99852         2.94285
   H       13.73033       -13.26819         2.90527
   H       15.92170       -14.11547         2.37033
   H       18.22557       -14.57683         1.30518
   H       19.70813       -13.84832        -0.63528
   H       21.35431       -10.28491        -6.12133
   H       24.02958       -11.79479        -6.10945
   H       23.49485       -10.50808        -7.30842
*
