# ORCA input file
# SCF done       -133.267024168617          0.000459521017
! CAM-B3LYP def2-SVP def2/J RIJCOSX Grid4 TightSCF
%maxcore 5000
%tddft
    Mode sTDDFT
    Ethresh 5.0
    maxcore 5000
end

%pal
  nprocs 6
  end
* xyz 0 1
   C        0.47013         1.34989        -5.13013
   S       -0.22921        -0.20633        -4.93126
   C       -1.55875         0.21835        -5.93108
   C       -1.46786         1.49032        -6.38573
   C       -0.29818         2.15822        -5.91988
   N       -0.02671         3.46111        -6.31786
   C        0.70271         4.41452        -5.68579
   C        1.26653         4.34710        -4.45855
   C        1.99418         5.42693        -3.89801
   O        2.18401         6.59170        -4.58651
   C        2.58843         5.55366        -2.65899
   C        2.85656         4.87172        -1.40185
   O        2.57809         3.76510        -1.01135
   N        3.56570         5.82330        -0.65560
   C        3.77496         7.03392        -1.29502
   O        4.35256         7.98818        -0.81400
   C        3.14902         6.85950        -2.59807
   C        2.87872         7.47149        -3.80745
   C        3.17865         8.77752        -4.26960
   C        3.79982         9.64838        -3.43582
   C        4.11729        10.99977        -3.67735
   S        3.84149        11.80366        -5.20165
   C        4.38935        13.29595        -4.55626
   C        4.76593        13.20588        -3.25560
   C        4.62335        11.89539        -2.73293
   N        4.94098        11.52314        -1.45204
   C        5.05373        12.35224        -0.38585
   C        5.41279        11.93084         0.84774
   C        5.43474        12.79198         1.97454
   O        4.96141        14.06934         1.88136
   C        5.83428        12.57526         3.27656
   C        6.40773        11.59301         4.18823
   O        6.77287        10.45624         4.01907
   N        6.46509        12.27301         5.40782
   C        5.99070        13.58145         5.38302
   O        5.96242        14.32362         6.33606
   C        5.58140        13.77649         3.99694
   C        5.03308        14.67439         3.10429
   C        4.51489        15.98749         3.24525
   C        4.52500        16.64972         4.42793
   C        3.95580        17.92903         4.66004
   S        4.49669        18.81099         6.07174
   C        3.58119        20.18851         5.62610
   C        2.86970        19.98801         4.48890
   C        3.04620        18.69277         3.93497
   N        2.36081        18.32231         2.79138
   C        1.69999        17.12775         2.56024
   C        1.56965        16.10567         3.39791
   H        1.41549         1.55440        -4.67372
   H       -2.33196        -0.49902        -6.11846
   H       -2.19863         1.95449        -7.02437
   H       -0.52817         3.75280        -7.14355
   H        0.81276         5.32861        -6.25457
   H        1.15745         3.49125        -3.81545
   H        3.89396         5.64039         0.28176
   H        2.87683         9.05066        -5.26933
   H        4.05490         9.28103        -2.45150
   H        4.41164        14.16253        -5.18663
   H        5.15351        14.03741        -2.69636
   H        5.00522        10.53014        -1.25670
   H        4.82207        13.39323        -0.55681
   H        5.67872        10.90181         1.03440
   H        6.82642        11.84496         6.24786
   H        4.11237        16.43155         2.34975
   H        5.02090        16.19184         5.27427
   H        3.60914        21.06729         6.23911
   H        2.21968        20.72758         4.05330
   H        1.99998        19.10865         2.26922
   H        1.28044        17.08010         1.56299
   H        1.94397        16.12819         4.40389
   H        1.05429        15.21571         3.08945
*
