# ORCA input file
# SCF done       -122.066438307042          0.000950416279
! CAM-B3LYP def2-SVP def2/J RIJCOSX Grid4 TightSCF
%maxcore 5000
%tddft
    Mode sTDDFT
    Ethresh 5.0
    maxcore 5000
end

%pal
  nprocs 6
  end
* xyz 0 1
   C       -0.98773         0.48816        -0.04921
   S        0.26015         1.49239         0.56212
   C        1.35716         0.92150        -0.67310
   C        0.74196         0.00304        -1.49108
   C       -0.59303        -0.23967        -1.13073
   C        2.66041         1.38806        -0.73818
   C        3.79822         1.81430        -0.76455
   C        5.09915         2.29301        -0.78746
   C        6.03532         1.90899        -1.68433
   C        7.37113         2.42482        -1.65354
   N        7.71015         3.31261        -0.72925
   N        8.90213         3.81052        -0.62854
   C        9.90375         3.48549        -1.43243
   C        9.67730         2.54778        -2.48048
   C        8.35849         2.00078        -2.59194
   N        8.25515         1.13989        -3.59884
   S        9.68271         1.03279        -4.33374
   N       10.49970         2.07057        -3.40969
   C       11.16441         4.10408        -1.17755
   S       11.28444         5.23038         0.13135
   C       12.98195         5.45673        -0.20106
   C       13.39708         4.68954        -1.27630
   C       12.37034         3.92922        -1.82708
   C       13.74288         6.30744         0.57799
   C       14.36421         7.05607         1.30887
   C       15.05765         7.90307         2.15691
   C       16.40706         8.05319         2.14225
   C       17.13274         8.88805         3.02607
   N       16.57912         9.70143         3.99211
   C       17.53244        10.39765         4.73889
   O       17.25142        11.16658         5.63254
   C       18.79864         9.96307         4.17308
   C       18.50554         9.04233         3.12087
   C       19.75437         8.59040         2.54933
   O       20.02265         7.82488         1.64972
   N       20.71692         9.27555         3.30690
   C       20.17327        10.08929         4.27376
   C       20.96103        10.88414         5.18534
   C       22.38101        10.85048         5.14958
   C       23.13144        11.59547         6.00916
   C       22.50278        12.42487         6.96125
   C       21.08027        12.46766         7.00815
   C       20.32592        11.69102         6.11424
   N       20.44932        13.25266         7.91020
   C       21.19473        13.95303         8.71768
   C       22.60578        13.90850         8.66887
   N       23.24719        13.16183         7.81083
   H       -1.94679         0.49437         0.43001
   H        1.24484        -0.46991        -2.31532
   H       -1.23696        -0.92588        -1.65115
   H        5.37173         3.01783        -0.03042
   H        5.81519         1.18951        -2.45989
   H       14.41130         4.69430        -1.63368
   H       12.47893         3.26580        -2.66601
   H       14.44387         8.44133         2.86986
   H       17.00560         7.49851         1.43381
   H       15.59194         9.80936         4.16049
   H       21.70285         9.16193         3.13537
   H       22.88479        10.22151         4.43087
   H       24.20988        11.57198         5.98734
   H       19.24978        11.74370         6.17719
   H       20.68012        14.57890         9.43468
   H       23.20950        14.49738         9.34660
*
