# ORCA input file
# SCF done       -141.479290641204          0.000463610635
! CAM-B3LYP def2-SVP def2/J RIJCOSX Grid4 TightSCF
%maxcore 5000
%tddft
    Mode sTDDFT
    Ethresh 5.0
    maxcore 5000
end

%pal
  nprocs 6
  end
* xyz 0 1
   C        3.46478        -3.54512         0.38454
   S        3.64080        -2.07501         1.25165
   C        5.12860        -1.72627         0.40604
   C        5.43215        -2.72470        -0.48848
   C        4.48097        -3.75820        -0.49577
   C        5.84548        -0.56799         0.66526
   C        6.45653         0.45164         0.91221
   C        7.17086         1.61544         1.16952
   C        8.25884         1.97057         0.44925
   C        9.01789         3.16415         0.62098
   S        9.66090         3.90863        -0.80813
   C       10.18567         5.32803         0.04079
   C        9.97831         5.17388         1.41519
   C        9.30449         3.94355         1.74477
   C        9.11901         3.60770         3.11406
   C        8.67294         2.34108         3.55133
   N        8.37850         1.32884         4.00438
   C        9.50455         4.49622         4.10061
   C       10.16981         5.67975         3.78121
   C       10.45423         6.00234         2.46728
   C       11.34042         7.08291         2.25984
   N       12.11378         7.92777         2.19231
   C       10.64010         6.42812        -0.73592
   C       10.47904         7.73338        -0.41234
   C       10.91157         8.82239        -1.21272
   S       10.62124        10.44670        -0.66159
   C       11.35668        11.10712        -2.09562
   C       11.80012        10.09980        -2.93513
   C       11.55621         8.82542        -2.43835
   C       11.43665        12.47021        -2.30172
   C       11.48294        13.67526        -2.46484
   C       11.52734        15.03988        -2.68774
   C       11.34281        15.95553        -1.70047
   C       11.34135        17.35217        -1.91017
   S       11.40173        18.01130        -3.51744
   C       11.31936        19.65307        -2.96212
   C       11.26739        19.69121        -1.55985
   C       11.27241        18.38541        -0.96352
   C       11.22017        18.27275         0.45061
   C       11.22673        17.03918         1.13748
   N       11.22758        16.08730         1.77855
   C       11.16302        19.41255         1.23281
   C       11.15738        20.67989         0.65409
   C       11.20855        20.83434        -0.72001
   C       11.20439        22.16031        -1.20364
   N       11.19791        23.26721        -1.50866
   C       11.27950        20.73191        -3.87053
   C       11.26710        20.59936        -5.22252
   C       11.17972        21.68268        -6.13052
   S       11.09809        21.36133        -7.84303
   C       10.97652        23.06104        -8.19699
   C       11.00726        23.81248        -7.03889
   C       11.12030        23.04356        -5.88441
   C       10.85389        23.51635        -9.50148
   C       10.73475        23.88858       -10.64905
   C       10.59357        24.35340       -11.96346
   C       10.55074        23.54872       -13.02407
   H        2.61485        -4.16895         0.57893
   H        6.31015        -2.70262        -1.10866
   H        4.54675        -4.62552        -1.12820
   H        6.78916         2.24303         1.96312
   H        8.53518         1.36111        -0.40231
   H        9.34567         4.23668         5.13656
   H       10.52386         6.32319         4.57257
   H       11.05558         6.16998        -1.70067
   H        9.96399         8.00007         0.49953
   H       12.28691        10.30517        -3.87208
   H       11.83575         7.92637        -2.95702
   H       11.72076        15.36379        -3.70414
   H       11.18875        15.60608        -0.69054
   H       11.12468        19.31487         2.30731
   H       11.11468        21.55582         1.28382
   H       11.23538        21.71917        -3.43981
   H       11.30671        19.60813        -5.65708
   H       10.94500        24.88617        -7.04852
   H       11.15689        23.46350        -4.89543
   H       10.51639        25.42866       -12.07254
   H       10.62676        22.47921       -12.92206
   H       10.43902        23.93810       -14.02096
*
