# ORCA input file
# SCF done       -120.133765420773          0.000281686688
! CAM-B3LYP def2-SVP def2/J RIJCOSX Grid4 TightSCF
%maxcore 5000
%tddft
    Mode sTDDFT
    Ethresh 5.0
    maxcore 5000
end

%pal
  nprocs 6
  end
* xyz 0 1
   C        8.68334        -0.63655         3.23664
   N        7.65020        -0.90694         2.39926
   C        7.79616        -1.56715         1.12658
   C        8.63384        -0.75289         0.14377
   C        6.48507        -0.53163         3.01299
   C        6.79962        -0.02482         4.25560
   C        8.19597        -0.08154         4.38970
   C        5.15691        -0.77432         2.45720
   C        4.67942        -0.27456         1.29551
   O        3.45145        -0.66327         0.75929
   C        2.71781        -1.49639         1.54817
   C        3.19867        -1.96699         2.80662
   C        2.31512        -2.77765         3.43757
   S        0.87625        -2.98231         2.50679
   C        1.47991        -1.96008         1.25298
   O        4.43176        -1.63158         3.27773
   C        5.31929         0.70573         0.45478
   C        6.22204         1.61973         0.85738
   C        6.83339         2.57321        -0.01563
   N        7.53746         3.66160         0.44171
   C        7.49360         4.14955         1.79753
   C        6.12884         4.75677         2.11870
   C        8.01430         4.35956        -0.63294
   C        7.62366         3.70487        -1.78756
   C        6.89313         2.58248        -1.40340
   C        8.78179         5.59383        -0.55906
   C        9.95276         5.75685         0.10552
   O       10.63788         6.96661         0.12445
   C       10.10759         7.94057        -0.66581
   C        8.90180         7.74866        -1.40359
   C        8.54792         8.83922        -2.12612
   S        9.68184        10.12355        -1.91906
   C       10.64209         9.17239        -0.84517
   O        8.20136         6.58296        -1.34615
   C       10.62444         4.69191         0.80446
   C       11.83620         4.86028         1.37275
   C       12.68681         3.92703         2.04178
   N       12.37928         2.69245         2.56375
   C       11.07620         2.11935         2.78071
   C       10.30523         2.88959         3.84997
   C       13.50719         2.15085         3.08732
   C       14.56240         3.00548         2.89093
   C       14.04752         4.13077         2.24351
   H        9.69065        -0.87952         2.96190
   H        6.79998        -1.73357         0.71275
   H        8.27097        -2.54222         1.28909
   H        8.17536         0.21553        -0.03545
   H        8.70544        -1.28396        -0.80118
   H        9.63882        -0.59879         0.52833
   H        6.09724         0.35019         4.97310
   H        8.76823         0.22966         5.24127
   H        2.42510        -3.26220         4.38477
   H        0.89277        -1.76501         0.38044
   H        4.94518         0.72254        -0.55853
   H        6.51002         1.64459         1.89844
   H        8.26951         4.90785         1.91411
   H        7.70885         3.32719         2.48498
   H        5.91844         5.58164         1.44195
   H        6.11973         5.12965         3.13926
   H        5.34450         4.01178         2.00916
   H        7.86802         4.00758        -2.78593
   H        6.47181         1.84480        -2.05635
   H        7.69523         8.96192        -2.76009
   H       11.53329         9.57499        -0.41179
   H       10.11776         3.74248         0.77975
   H       12.28571         5.84067         1.28013
   H       11.22279         1.08898         3.11427
   H       10.51082         2.09139         1.84616
   H       10.87290         2.90331         4.77762
   H        9.34837         2.40909         4.03472
   H       10.13927         3.91561         3.53297
   H       13.48493         1.19008         3.56513
   H       15.58004         2.83761         3.18263
   H       14.59652         4.99694         1.93003
*
