# ORCA input file
# SCF done       -118.852687021007          0.000506864743
! CAM-B3LYP def2-SVP def2/J RIJCOSX Grid4 TightSCF
%maxcore 5000
%tddft
    Mode sTDDFT
    Ethresh 5.0
    maxcore 5000
end

%pal
  nprocs 6
  end
* xyz 0 1
   C        6.75289        -1.42266        -4.66279
   N        6.04130        -1.28046        -3.51592
   C        6.46131        -1.79066        -2.23516
   C        5.91367        -3.19811        -2.00211
   C        4.78667        -0.83124        -3.84018
   C        4.72433        -0.68288        -5.20996
   C        5.97699        -1.04546        -5.72664
   C        3.73174        -0.57228        -2.87143
   C        3.85005         0.27726        -1.81816
   O        2.83565         0.46300        -0.88260
   C        1.67098        -0.18039        -1.17547
   C        1.53410        -1.02562        -2.31672
   C        0.29653        -1.56803        -2.42528
   S       -0.72705        -1.05624        -1.13558
   C        0.53301        -0.10022        -0.44441
   O        2.57037        -1.25661        -3.17310
   C        5.01418         1.08289        -1.60080
   C        5.17045         1.89207        -0.52954
   C        6.32970         2.69108        -0.30545
   N        6.45601         3.60835         0.69560
   C        5.47407         3.88076         1.71589
   C        5.82867         3.18081         3.02620
   C        7.72185         4.13193         0.66927
   C        8.40860         3.52945        -0.39645
   C        7.53867         2.65553        -1.01376
   C        8.29223         5.10141         1.54088
   N        9.66583         5.09099         1.68882
   C       10.15485         6.08716         2.54356
   O       11.32355         6.21453         2.81769
   C        8.94832         6.80044         2.92473
   C        7.82148         6.16630         2.30073
   C        6.64855         6.95695         2.61938
   O        5.47507         6.85228         2.30323
   N        7.13945         7.97772         3.42492
   C        8.49761         7.90664         3.60528
   C        9.20697         8.89483         4.38106
   N        8.48433         9.89594         4.89858
   C        9.15138        10.79669         5.59844
   C       10.52007        10.72863         5.79926
   C       11.18941         9.63962         5.22312
   N       10.51435         8.73727         4.51979
   C       12.62168         9.38754         5.32249
   C       13.49696        10.12386         5.99492
   H        7.76494        -1.77760        -4.64095
   H        6.11728        -1.12228        -1.44189
   H        7.55424        -1.80857        -2.22218
   H        4.82654        -3.18543        -2.01782
   H        6.24494        -3.57434        -1.03815
   H        6.25957        -3.87325        -2.78137
   H        3.87629        -0.32877        -5.76105
   H        6.27160        -1.02923        -6.75678
   H       -0.06729        -2.23179        -3.18112
   H        0.36248         0.45779         0.45214
   H        5.76073         1.04252        -2.37756
   H        4.37741         1.91553         0.20237
   H        4.50155         3.53772         1.36305
   H        5.40391         4.95948         1.87028
   H        5.86966         2.10146         2.88888
   H        5.07658         3.41068         3.77519
   H        6.79391         3.52222         3.39277
   H        9.40971         3.75523        -0.70813
   H        7.74746         2.04762        -1.87089
   H       10.26362         4.39257         1.27664
   H        6.57835         8.71832         3.81691
   H        8.55737        11.60339         6.01076
   H       11.03617        11.48092         6.37107
   H       12.92865         8.50491         4.77872
   H       13.21777        11.00573         6.54791
   H       14.54181         9.86587         6.01786
*
