# ORCA input file
# SCF done       -118.041060452529          0.000546729657
! CAM-B3LYP def2-SVP def2/J RIJCOSX Grid4 TightSCF
%maxcore 5000
%tddft
    Mode sTDDFT
    Ethresh 5.0
    maxcore 5000
end

%pal
  nprocs 6
  end
* xyz 0 1
   C        0.25188         0.01847        -3.17423
   C        0.49011        -0.29407        -1.90337
   C        0.58174         0.81172        -0.96930
   C        0.41014         2.02781        -1.51589
   S        0.11971         1.80561        -3.29539
   O        1.20664         2.37358        -4.03974
   O       -1.21050         2.22486        -3.63084
   C        0.41743         3.34533        -1.01535
   S        0.12244         4.65548        -2.10687
   C        0.29937         5.82990        -0.83433
   C        0.57500         5.21107         0.38800
   C        0.63974         3.80106         0.28321
   C        0.89977         2.95376         1.37396
   N        1.11114         2.26172         2.26342
   C        0.76838         5.86074         1.61901
   N        0.93244         6.34979         2.64372
   C        0.15319         7.20696        -1.14444
   C        0.31571         8.24488        -0.28258
   C        0.13750         9.57619        -0.70091
   C        0.27156        10.74536        -0.02820
   C        0.00415        11.94337        -0.75804
   C       -0.36379        11.77179        -2.05025
   S       -0.37098         9.99061        -2.38922
   O        0.64550         9.66847        -3.35048
   O       -1.70687         9.54358        -2.66536
   C       -0.71328        12.64737        -3.09034
   S       -1.17803        11.98797        -4.62490
   C       -1.43356        13.57271        -5.29450
   C       -1.16184        14.56786        -4.35246
   C       -0.75531        14.04315        -3.10291
   C       -0.42862        14.84528        -1.99706
   N       -0.16299        15.50218        -1.09542
   C       -1.26593        15.95422        -4.55979
   N       -1.33619        17.09255        -4.68357
   C       -1.87257        13.68729        -6.64154
   C       -2.09064        14.84274        -7.31572
   C       -2.54264        14.83414        -8.65459
   C       -2.80512        15.84357        -9.50497
   C       -3.27003        15.45140       -10.81933
   C       -3.38669        14.14346       -11.03255
   S       -2.89648        13.28117        -9.53104
   O       -1.69503        12.52180        -9.73818
   O       -4.01358        12.60406        -8.93405
   H        0.14677        -0.62649        -4.02107
   H        0.61577        -1.30150        -1.53851
   H        0.77322         0.62926         0.07583
   H       -0.10528         7.43118        -2.17095
   H        0.58876         8.07714         0.75095
   H        0.56522        10.79728         1.00847
   H        0.09478        12.90722        -0.28256
   H       -2.04200        12.75264        -7.15917
   H       -1.92733        15.80526        -6.84863
   H       -2.68728        16.88663        -9.25697
   H       -3.49754        16.21038       -11.55199
   H       -3.70781        13.62823       -11.91364
*
