# ORCA input file
# SCF done       -197.111607976166          0.000650375313
! CAM-B3LYP def2-SVP def2/J RIJCOSX Grid4 TightSCF
%maxcore 5000
%tddft
    Mode sTDDFT
    Ethresh 5.0
    maxcore 5000
end

%pal
  nprocs 6
  end
* xyz 0 1
   C        0.97944        -0.00832         6.40218
   S        1.31841         1.63250         6.06119
   C       -0.31321         2.09334         6.49444
   C       -1.04993         0.99784         6.88469
   C       -0.30597        -0.20466         6.80981
   C       -0.95588        -1.52861         7.05105
   C       -2.41108        -1.41805         6.56684
   C       -2.41590        -1.01629         5.17866
   N       -2.39949        -0.65579         4.09434
   C       -3.14537        -0.34184         7.39980
   C       -3.15035        -0.76267         8.78447
   N       -3.15885        -1.12429         9.86794
   C       -2.49775         1.04929         7.25078
   C       -0.68550         3.46817         6.33379
   C       -1.19756         4.37316         7.24175
   N       -1.51458         4.16811         8.59047
   O       -1.87500         5.13462         9.24063
   O       -1.40815         3.03858         9.05081
   C       -1.24589         5.68537         6.63245
   C       -0.73110         5.60471         5.38513
   C       -0.39108         4.23234         5.11330
   C       -0.04891         3.68479         3.89493
   C       -0.33346         2.35871         3.43902
   C       -0.05974         2.29121         2.11011
   C        0.46051         3.55313         1.66148
   N        0.90485         3.69476         0.33881
   O        1.14464         4.81008        -0.10530
   O        1.02294         2.67489        -0.31992
   C        0.50622         4.43713         2.74501
   C        1.12990         5.68123         2.95751
   C        1.47590         6.62909         2.03105
   C        2.11651         7.82359         2.40579
   N        2.44575         8.82252         1.51629
   C        2.27187         8.76991         0.08212
   C        3.27312         7.83616        -0.58939
   C        3.04238         9.91457         2.14758
   O        3.39046        10.93161         1.56828
   C        3.08935         9.54622         3.54707
   C        2.51449         8.26440         3.67657
   C        2.55630         7.89740         5.07842
   O        2.16747         6.91225         5.67361
   N        3.17681         8.99089         5.70557
   C        3.37301         9.02580         7.13704
   C        4.77498         8.56411         7.52623
   C        3.50710         9.97452         4.81436
   C        4.15563        11.17433         5.20290
   C        4.28917        12.23397         4.37364
   C        4.89481        13.48857         4.73810
   C        4.89067        13.98923         6.05429
   C        4.16633        13.56339         7.28105
   O        3.41473        12.64362         7.46450
   O        4.46114        14.43290         8.27179
   C        5.33190        15.45562         7.83006
   C        5.56178        15.16185         6.38500
   C        6.26603        15.88664         5.44137
   C        6.23870        15.43649         4.13796
   C        5.55984        14.27082         3.75607
   C        5.53572        13.91300         2.34995
   C        6.54578        14.18964         1.50356
   C        6.59395        14.01879         0.08583
   S        8.10220        14.44403        -0.68736
   C        7.43903        14.17148        -2.23661
   C        6.13775        13.76800        -2.18077
   C        5.64813        13.65949        -0.85586
   C        4.24039        13.25553        -0.55181
   C        3.47081        12.80780        -1.80661
   C        3.78908        11.43655        -2.13127
   N        4.04275        10.35844        -2.41292
   C        3.81003        13.69173        -3.02749
   C        3.54755        15.07627        -2.70850
   N        3.35143        16.17043        -2.44440
   C        5.29106        13.50776        -3.38758
   H        1.74651        -0.74710         6.27964
   H       -0.95180        -1.77776         8.11619
   H       -0.42567        -2.31620         6.51215
   H       -2.92572        -2.38071         6.66430
   H       -4.19300        -0.28406         7.07829
   H       -2.58636         1.59005         8.20026
   H       -3.03590         1.62623         6.49281
   H       -1.63153         6.55076         7.13617
   H       -0.68333         6.39947         4.66793
   H       -0.80261         1.58688         4.01709
   H       -0.20654         1.44992         1.45945
   H        1.35047         5.89678         3.99508
   H        1.23723         6.48235         0.99047
   H        2.42913         9.79031        -0.27577
   H        1.24770         8.46693        -0.15055
   H        4.28339         8.08303        -0.27246
   H        3.21418         7.96666        -1.66514
   H        3.06714         6.79647        -0.35155
   H        2.63510         8.34102         7.56377
   H        3.17551        10.03662         7.50141
   H        4.93996         7.54364         7.18839
   H        4.88010         8.59354         8.60681
   H        5.53569         9.20359         7.08378
   H        4.52895        11.22062         6.21115
   H        3.95097        12.12326         3.35319
   H        6.25354        15.42038         8.42245
   H        4.85019        16.42579         7.99431
   H        6.78999        16.79037         5.70994
   H        6.72689        16.02158         3.37437
   H        4.65344        13.41093         1.99267
   H        7.46130        14.60186         1.91103
   H        8.03849        14.32854        -3.11130
   H        3.71783        14.10749        -0.10371
   H        4.22609        12.43515         0.17065
   H        2.39494        12.85633        -1.59724
   H        3.17971        13.41009        -3.87994
   H        5.57499        14.18606        -4.19563
   H        5.44412        12.48280        -3.74052
*
