# ORCA input file
# SCF done       -202.024980959018          0.000599186353
! CAM-B3LYP def2-SVP def2/J RIJCOSX Grid4 TightSCF
%maxcore 5000
%tddft
    Mode sTDDFT
    Ethresh 5.0
    maxcore 5000
end

%pal
  nprocs 6
  end
* xyz 0 1
   C        7.44415         4.74853        -1.00716
   C        6.55548         5.63138        -0.45173
   C        6.40249         5.82584         0.93689
   N        6.23385         6.02584         2.05407
   C        5.64844         6.39355        -1.20560
   N        4.85705         7.01080        -1.76687
   C        8.26297         3.78725        -0.28755
   C        8.66566         2.76097        -1.19379
   C        9.44065         1.71313        -0.78760
   C        9.86228         1.64989         0.55984
   C        9.47606         2.68169         1.46488
   C        8.66647         3.75118         1.02001
   C        9.91749         2.61197         2.80199
   C       10.70045         1.57380         3.22791
   C       11.07778         0.55756         2.33729
   C       10.66680         0.59436         1.03235
   C        8.15104         3.06743        -2.53818
   O        8.21831         2.40384        -3.54594
   C        7.56319         4.43618        -2.41797
   C        7.38927         5.18636        -3.52986
   C        7.21042         6.59780        -3.65502
   C        7.77395         7.63098        -2.90380
   N        8.75578         7.56736        -1.90184
   O        9.09074         8.61816        -1.38085
   O        9.22864         6.48140        -1.59088
   C        7.30043         8.89580        -3.39333
   C        6.39916         8.66307        -4.37494
   C        6.30464         7.23510        -4.59618
   C        5.50030         6.65339        -5.56337
   C        5.73870         5.49852        -6.35263
   C        4.92580         5.53859        -7.45560
   C        4.03828         6.64581        -7.34772
   N        3.14972         7.02158        -8.34497
   O        2.33466         7.91681        -8.13109
   O        3.26314         6.47880        -9.43928
   C        4.30955         7.31881        -6.14555
   C        3.55098         8.33770        -5.58293
   C        3.62880         8.82393        -4.29604
   C        3.05282        10.05075        -3.89925
   C        2.79896        10.37751        -2.56846
   C        3.05205         9.55165        -1.36795
   S        2.03956        11.90380        -2.43300
   C        2.06314        12.15637        -4.16084
   C        1.55261        13.43909        -4.70824
   C        2.63589        11.10073        -4.80872
   C        2.89392        11.03783        -6.23174
   C        2.02312        11.41947        -7.18442
   C        2.25429        11.28797        -8.58563
   S        1.08423        11.99577        -9.67074
   C        1.94520        11.48283       -11.09219
   C        3.05241        10.75314       -10.71856
   C        3.23536        10.63930        -9.31810
   C        4.39447         9.78580        -9.04557
   O        4.94770         9.57269        -7.98953
   C        4.81629         9.20109       -10.38323
   C        4.03098         9.94161       -11.44818
   O        4.18459         9.85114       -12.64221
   C        1.45006        11.73099       -12.40881
   C        2.26335        11.94908       -13.46805
   C        1.91831        11.93288       -14.88129
   C        0.65894        11.89388       -15.41613
   C        0.38693        11.87445       -16.80094
   N        0.09748        11.86367       -17.91138
   C       -0.53628        11.91012       -14.66675
   N       -1.54313        11.93163       -14.11559
   C        3.16723        11.95951       -15.63118
   C        4.25072        12.14609       -14.72423
   C        3.72708        12.26008       -13.35639
   O        4.30287        12.67317       -12.37566
   C        5.54527        12.21169       -15.15160
   C        5.82348        12.07808       -16.52980
   C        4.74621        11.88808       -17.44372
   C        3.41520        11.83235       -16.97361
   C        5.03610        11.75905       -18.81793
   C        6.32628        11.81402       -19.26938
   C        7.38623        11.99995       -18.36868
   C        7.14017        12.12871       -17.02878
   H        9.73524         0.94370        -1.48582
   H        8.40170         4.53064         1.71743
   H        9.62331         3.39598         3.48397
   H       11.03417         1.52992         4.25380
   H       11.69711        -0.25361         2.68981
   H       10.95574        -0.18473         0.34216
   H        7.45880         4.62916        -4.45652
   H        7.65022         9.83990        -3.02345
   H        5.93062         9.39708        -4.99907
   H        6.52243         4.78304        -6.20524
   H        4.93552         4.85777        -8.28680
   H        2.79269         8.75181        -6.23919
   H        4.09538         8.22334        -3.52489
   H        2.38440         8.68905        -1.34963
   H        2.89185        10.13121        -0.46256
   H        4.06952         9.16231        -1.37116
   H        1.72945        14.24854        -4.00278
   H        0.47794        13.38364        -4.88714
   H        2.04598        13.67062        -5.65008
   H        3.85526        10.63794        -6.52464
   H        1.05223        11.81073        -6.91363
   H        4.54607         8.13949       -10.42722
   H        5.89440         9.25955       -10.53947
   H        0.37539        11.69543       -12.53101
   H        6.34843        12.35370       -14.44423
   H        2.62221        11.68459       -17.68966
   H        4.21688        11.61618       -19.50726
   H        6.53818        11.71407       -20.32337
   H        8.39843        12.04046       -18.74256
   H        7.95217        12.27190       -16.33096
*
