# ORCA input file
# SCF done       -203.377552633266          0.000995223857
! CAM-B3LYP def2-SVP def2/J RIJCOSX Grid4 TightSCF
%maxcore 5000
%tddft
    Mode sTDDFT
    Ethresh 5.0
    maxcore 5000
end

%pal
  nprocs 6
  end
* xyz 0 1
   C        1.04735         2.58610         1.31727
   C       -0.16107         2.74800         0.69647
   C       -1.25958         1.88332         0.88825
   N       -2.18381         1.21764         1.02700
   C       -0.42628         3.74788        -0.26121
   N       -0.68361         4.51606        -1.07397
   C        1.43602         1.44099         2.13055
   C        2.86028         1.37931         2.18153
   C        3.51127         0.38056         2.84750
   C        2.75578        -0.60966         3.51425
   C        1.33211        -0.54178         3.48430
   C        0.68425         0.49810         2.77992
   C        0.59058        -1.52978         4.16382
   C        1.22247        -2.53921         4.83742
   C        2.62371        -2.60707         4.86377
   C        3.37392        -1.66342         4.21609
   C        3.42565         2.52494         1.45074
   O        4.58459         2.77582         1.22425
   C        2.24636         3.37729         1.09042
   C        2.44477         4.66837         0.75185
   C        1.48452         5.74609         0.69246
   C        1.69784         6.80902        -0.18239
   C        0.79024         7.85111        -0.25598
   N        1.15101         8.98971        -1.06499
   O        0.69848        10.06930        -0.74513
   O        1.92109         8.80435        -1.98206
   C       -0.37174         7.86481         0.52869
   C       -0.52624         6.84210         1.46898
   C        0.37759         5.80874         1.55092
   C       -1.38477         8.90122         0.46056
   N       -1.98755         9.37290        -0.67418
   C       -1.93259         8.79604        -1.99827
   C       -2.40964         7.34855        -2.01412
   C       -2.89245        10.41082        -0.37496
   O       -3.55025        10.99288        -1.21719
   C       -2.82459        10.55187         1.06050
   C       -1.90481         9.57803         1.54464
   C       -1.85599         9.68271         2.98925
   O       -1.23064         9.07108         3.82949
   N       -2.77871        10.70286         3.28565
   C       -3.03924        11.12176         4.64321
   C       -4.23072        10.37666         5.24043
   C       -3.35213        11.22584         2.15365
   C       -4.34710        12.24897         2.17858
   C       -4.65141        12.94158         1.06368
   C       -5.68207        13.94237         0.91350
   C       -6.13574        14.78870         1.93828
   C       -5.72376        14.95925         3.35554
   O       -4.90274        14.37285         4.00792
   O       -6.45033        15.96540         3.89214
   C       -7.34400        16.52589         2.95099
   C       -7.10514        15.76042         1.69234
   C       -7.67419        15.92901         0.44521
   C       -7.23362        15.11089        -0.57648
   C       -6.25202        14.13380        -0.37486
   C       -5.84652        13.29839        -1.48810
   C       -5.86524        13.69354        -2.78057
   C       -5.39749        12.84460        -3.81915
   C       -5.39121        13.18579        -5.13927
   C       -4.87071        12.39736        -6.24423
   C       -4.39642        11.11373        -6.18988
   C       -3.91220        10.40336        -7.30967
   N       -3.51338         9.76476        -8.17669
   C       -4.33460        10.29021        -5.04668
   N       -4.25200         9.52437        -4.19489
   C       -4.96278        13.20916        -7.45331
   C       -5.57668        14.45040        -7.12310
   C       -5.88843        14.47747        -5.68469
   O       -6.44650        15.37589        -5.08775
   C       -5.80247        15.41835        -8.05872
   C       -5.41179        15.18808        -9.39623
   C       -4.79114        13.95139        -9.73552
   C       -4.57377        12.96669        -8.74477
   C       -4.40160        13.73265       -11.07282
   C       -4.61477        14.68741       -12.02936
   C       -5.22679        15.90449       -11.69388
   C       -5.61682        16.14940       -10.40531
   H        4.59039         0.34706         2.86678
   H       -0.39416         0.53187         2.78102
   H       -0.48778        -1.47528         4.13762
   H        0.64584        -3.29188         5.35368
   H        3.10554        -3.41048         5.40038
   H        4.45285        -1.71045         4.23335
   H        3.47640         4.93857         0.54796
   H        2.57280         6.83714        -0.81536
   H       -1.37737         6.87207         2.13002
   H        0.24547         5.04700         2.30459
   H       -0.92735         8.87189        -2.41981
   H       -2.60419         9.40551        -2.61060
   H       -1.73606         6.68888        -1.47148
   H       -2.46766         7.00784        -3.04331
   H       -3.40199         7.27811        -1.57522
   H       -3.20913        12.20051         4.66193
   H       -2.13908        10.88803         5.21831
   H       -5.13347        10.56050         4.66225
   H       -4.39697        10.71164         6.26015
   H       -4.03530         9.30689         5.25096
   H       -4.84329        12.44210         3.11427
   H       -4.09476        12.70995         0.16761
   H       -7.12291        17.59379         2.84360
   H       -8.36873        16.41911         3.32529
   H       -8.43102        16.67832         0.27469
   H       -7.66995        15.21391        -1.55754
   H       -5.47904        12.30507        -1.27047
   H       -6.19471        14.68287        -3.06066
   H       -4.99173        11.88966        -3.50861
   H       -6.27150        16.35040        -7.77984
   H       -4.09926        12.04335        -9.03600
   H       -3.93104        12.79405       -11.32647
   H       -4.31251        14.51043       -13.05070
   H       -5.38716        16.64686       -12.46145
   H       -6.08828        17.08466       -10.14054
*
