# ORCA input file
# SCF done       -219.511821186056          0.000528743483
! CAM-B3LYP def2-SVP def2/J RIJCOSX Grid4 TightSCF
%maxcore 5000
%tddft
    Mode sTDDFT
    Ethresh 5.0
    maxcore 5000
end

%pal
  nprocs 6
  end
* xyz 0 1
   C        5.22683         7.34979        -5.65833
   C        4.00403         7.93872        -5.82692
   C        3.75877         9.05699        -6.64552
   N        3.52009         9.97702        -7.28884
   C        2.84966         7.37121        -5.25465
   N        1.91054         6.82073        -4.88854
   C        6.42720         7.54630        -6.45174
   C        7.27023         6.40586        -6.28573
   C        8.46283         6.30133        -6.94296
   C        8.87205         7.34769        -7.79962
   C        8.03643         8.49179        -7.96046
   C        6.80391         8.57297        -7.27372
   C        8.46469         9.52922        -8.81366
   C        9.65817         9.44380        -9.47719
   C       10.47922         8.31713        -9.31918
   C       10.09399         7.29168        -8.49918
   C        6.65741         5.46718        -5.32963
   O        7.03689         4.37141        -4.99314
   C        5.47582         6.20828        -4.79256
   C        4.96584         5.93309        -3.57477
   C        4.18992         6.80489        -2.73479
   C        4.44042         8.13237        -2.41508
   N        5.47241         8.97959        -2.85054
   O        5.53425        10.08791        -2.34811
   O        6.25853         8.58145        -3.70051
   C        3.49413         8.58061        -1.42019
   C        2.60476         7.59105        -1.20673
   C        2.96259         6.45105        -2.02885
   C        2.18403         5.32421        -2.20722
   C        2.59014         3.99347        -2.51621
   C        1.55387         3.14457        -2.25049
   C        0.40826         3.90704        -1.86051
   N       -0.84662         3.33567        -1.60138
   O       -1.77616         4.07680        -1.31187
   O       -0.93659         2.12203        -1.66153
   C        0.73635         5.26344        -1.89294
   C       -0.15008         6.35449        -1.87960
   C        0.16060         7.53504        -2.50710
   C       -0.51868         8.76104        -2.58347
   N       -1.74054         9.15872        -2.10401
   C       -2.69859         8.37741        -1.35564
   C       -2.31525         8.27598         0.11809
   C       -2.00885        10.50858        -2.40987
   O       -3.03353        11.07342        -2.09895
   C       -0.83048        10.96224        -3.12968
   C        0.05296         9.87631        -3.22116
   C        1.25803        10.32243        -3.89414
   O        2.30821         9.76609        -4.14049
   N        0.99496        11.66803        -4.20668
   C        1.95434        12.47372        -4.92655
   C        1.59020        12.60729        -6.40194
   C       -0.23503        12.07105        -3.75282
   C       -0.73330        13.38589        -3.90135
   C       -1.93492        13.78033        -3.40468
   C       -2.43051        15.11505        -3.51770
   N       -3.55999        15.39211        -2.87538
   N       -4.15951        16.52511        -2.92735
   C       -3.66349        17.58985        -3.53489
   C       -2.38705        17.47947        -4.14856
   C       -1.78229        16.18109        -4.21285
   N       -0.63094        16.20865        -4.87944
   S       -0.33581        17.72394        -5.34046
   N       -1.63957        18.41831        -4.72113
   C       -4.41734        18.82099        -3.54171
   C       -4.63789        19.55253        -4.65524
   C       -5.29099        20.85125        -4.75537
   C       -5.61913        21.67297        -3.71255
   C       -6.22656        22.93861        -3.86336
   N       -6.72051        23.97265        -3.92233
   C       -5.37357        21.38912        -2.35144
   N       -5.18949        21.23573        -1.22909
   C       -5.46293        21.15004        -6.17002
   C       -4.89714        20.09069        -6.93809
   C       -4.36651        19.05724        -6.03932
   O       -3.88107        17.99182        -6.35201
   C       -4.91180        20.10324        -8.30407
   C       -5.49998        21.19618        -8.97778
   C       -6.07104        22.25798        -8.21715
   C       -6.04427        22.21689        -6.80491
   C       -6.66046        23.34173        -8.89983
   C       -6.68488        23.37710       -10.26749
   C       -6.12248        22.33141       -11.01521
   C       -5.54224        21.26445       -10.38437
   H        9.08999         5.43231        -6.80936
   H        6.18982         9.45210        -7.39603
   H        7.82903        10.39422        -8.93320
   H        9.97718        10.24434       -10.12781
   H       11.41844         8.26661        -9.84940
   H       10.72249         6.42223        -8.37311
   H        5.26190         4.98590        -3.13576
   H        3.54134         9.54802        -0.96004
   H        1.80157         7.59128        -0.49707
   H        3.57906         3.69496        -2.80026
   H        1.55613         2.07283        -2.32206
   H       -1.11862         6.17391        -1.43557
   H        1.06732         7.55123        -3.09880
   H       -2.79850         7.38935        -1.80941
   H       -3.65335         8.90321        -1.44635
   H       -1.32630         7.83994         0.23836
   H       -3.03545         7.65242         0.63934
   H       -2.31630         9.26426         0.57154
   H        2.91489        11.96008        -4.83350
   H        2.03047        13.45516        -4.45110
   H        1.60900        11.63068        -6.87851
   H        2.31895        13.24119        -6.89817
   H        0.60163        13.04429        -6.52323
   H       -0.12181        14.10688        -4.42509
   H       -2.57903        13.09227        -2.87300
   H       -4.83234        19.11628        -2.58734
   H       -4.47925        19.28704        -8.86359
   H       -6.49186        23.03150        -6.25808
   H       -7.09172        24.14434        -8.31993
   H       -7.13828        24.21134       -10.78123
   H       -6.15204        22.37530       -12.09354
   H       -5.10871        20.45622       -10.95490
*
