# ORCA input file
# SCF done       -222.222949159704          0.000664855683
! CAM-B3LYP def2-SVP def2/J RIJCOSX Grid4 TightSCF
%maxcore 5000
%tddft
    Mode sTDDFT
    Ethresh 5.0
    maxcore 5000
end

%pal
  nprocs 6
  end
* xyz 0 1
   C        3.56780         2.89209         1.61907
   C        4.16516         2.49517         2.78477
   C        5.53016         2.15179         2.88982
   N        6.63257         1.86720         3.03282
   C        3.49146         2.30891         4.01230
   N        3.00963         2.09331         5.03088
   C        4.20116         2.95334         0.30855
   C        3.19301         3.19273        -0.66954
   C        3.48829         3.29168        -1.99951
   C        4.83039         3.15827        -2.41883
   C        5.84519         2.92344        -1.44566
   C        5.50935         2.82293        -0.07596
   C        7.18115         2.79349        -1.87609
   C        7.50162         2.89107        -3.20301
   C        6.50228         3.12351        -4.15991
   C        5.19495         3.25335        -3.77640
   C        1.88025         3.29463        -0.01416
   O        0.80468         3.41459        -0.55883
   C        2.16414         3.23201         1.44901
   C        1.32628         3.64747         2.44312
   C       -0.01692         4.04766         2.33964
   C       -1.05299         3.74220         1.51901
   C       -2.28219         4.40868         1.78232
   C       -2.30096         5.27235         2.83478
   S       -0.64350         5.22672         3.57793
   O       -0.67766         4.62429         4.87704
   O        0.01667         6.49132         3.43251
   C       -3.29453         6.10454         3.36913
   C       -4.56841         6.20264         2.87454
   C       -5.54942         7.04184         3.43274
   N       -6.83854         7.13215         2.96391
   C       -7.42226         6.36207         1.88917
   C       -7.75846         4.93687         2.31978
   C       -7.60664         8.04849         3.70307
   O       -8.77170         8.30197         3.48435
   C       -6.67941         8.55811         4.69416
   C       -5.44127         7.93402         4.51804
   C       -4.55350         8.42772         5.56148
   O       -3.39409         8.19224         5.81105
   N       -5.35449         9.30421         6.32531
   C       -4.79798        10.03210         7.44189
   C       -4.55977        11.50020         7.10265
   C       -6.62625         9.39570         5.82425
   C       -7.78880         9.99904         6.31624
   C       -8.04640        10.68606         7.48147
   C       -9.36160        10.89334         7.91490
   C       -9.89459        11.92267         8.69964
   N       -9.18061        12.93884         9.34983
   O       -9.81769        13.78630         9.94967
   O       -7.95891        12.91281         9.29196
   C      -11.31533        11.84750         8.65406
   C      -11.68455        10.80296         7.84527
   C      -10.51584        10.12941         7.40836
   C      -10.39594         8.89551         6.77225
   C       -9.46512         7.87220         7.13488
   C       -9.70751         6.76502         6.37790
   C      -10.76684         7.05939         5.46416
   N      -11.13118         6.19057         4.42483
   O      -10.42345         5.20899         4.25184
   O      -12.11414         6.44694         3.75424
   C      -11.22322         8.35960         5.68512
   C      -12.11387         9.11470         4.89326
   C      -12.08375        10.47891         4.83593
   C      -13.01466        11.25400         4.11728
   C      -13.00968        12.62396         4.12581
   C      -13.92973        13.50774         3.43468
   C      -15.02074        13.14071         2.68887
   C      -15.87830        14.05461         2.04021
   N      -16.61369        14.74031         1.48612
   C      -15.46611        11.81992         2.47097
   N      -15.90537        10.78136         2.25502
   C      -13.50877        14.88097         3.69152
   C      -12.37301        14.85561         4.55071
   C      -12.02247        13.46372         4.86181
   O      -11.11017        13.09228         5.57461
   C      -11.76252        16.00001         4.97833
   C      -12.26670        17.24875         4.55334
   C      -13.39881        17.28400         3.68833
   C      -14.01177        16.08185         3.26565
   C      -13.89244        18.53537         3.26759
   C      -13.29760        19.69686         3.68010
   C      -12.18372        19.66083         4.53221
   C      -11.67922        18.46269         4.96022
   H        2.70648         3.47109        -2.72250
   H        6.29985         2.65247         0.63755
   H        7.94704         2.61340        -1.13630
   H        8.52773         2.78975        -3.52272
   H        6.77350         3.19929        -5.20216
   H        4.42116         3.43193        -4.50848
   H        1.73538         3.78703         3.43871
   H       -0.98254         3.02809         0.71486
   H       -3.13832         4.20664         1.15714
   H       -3.00502         6.69029         4.23277
   H       -4.84817         5.60950         2.01621
   H       -6.74129         6.36585         1.03303
   H       -8.34078         6.88401         1.60789
   H       -6.88096         4.42810         2.71285
   H       -8.13413         4.38061         1.46578
   H       -8.53086         4.94213         3.08526
   H       -3.84541         9.54679         7.67223
   H       -5.46216         9.93190         8.30467
   H       -3.83677        11.58389         6.29491
   H       -4.16869        12.01645         7.97431
   H       -5.48137        11.98936         6.79657
   H       -8.62636         9.83255         5.64888
   H       -7.25985        11.13543         8.07195
   H      -11.96523        12.52545         9.17466
   H      -12.68665        10.47134         7.65122
   H       -8.77159         7.94777         7.95036
   H       -9.20867         5.81586         6.42927
   H      -12.80167         8.56161         4.26509
   H      -11.30190        11.01419         5.35398
   H      -13.77297        10.72581         3.55401
   H      -10.90591        15.95134         5.63411
   H      -14.86698        16.14570         2.61217
   H      -14.75099        18.55868         2.61270
   H      -13.68314        20.65046         3.35207
   H      -11.72750        20.58697         4.84787
   H      -10.82274        18.42807         5.61722
*
