# ORCA input file
# SCF done       -215.801470000026          0.000504521968
! CAM-B3LYP def2-SVP def2/J RIJCOSX Grid4 TightSCF
%maxcore 5000
%tddft
    Mode sTDDFT
    Ethresh 5.0
    maxcore 5000
end

%pal
  nprocs 6
  end
* xyz 0 1
   C       -3.76525         0.74840        -1.22689
   C       -4.46661         1.85496        -1.62264
   C       -5.87222         1.90651        -1.72099
   N       -7.01135         1.99921        -1.82144
   C       -3.83969         3.04026        -2.05689
   N       -3.34219         3.99206        -2.46361
   C       -4.32443        -0.58400        -1.04533
   C       -3.27677        -1.54136        -1.19129
   C       -3.52001        -2.88356        -1.12457
   C       -4.83911        -3.33398        -0.89440
   C       -5.88574        -2.38072        -0.72470
   C       -5.60722        -0.99738        -0.80520
   C       -7.19499        -2.84613        -0.48586
   C       -7.46110        -4.18677        -0.42358
   C       -6.43111        -5.12417        -0.59447
   C       -5.14832        -4.70692        -0.82433
   C       -1.99714        -0.84262        -1.39919
   O       -0.91045        -1.31346        -1.63151
   C       -2.31577         0.60686        -1.20120
   C       -1.32669         1.49018        -0.93043
   C       -1.50714         2.79342        -0.37313
   S       -2.78196         3.07142         0.75573
   C       -2.43241         4.76744         0.80889
   C       -1.36180         5.08828        -0.02116
   C       -0.83776         3.97058        -0.68142
   C        0.23630         4.05258        -1.73255
   C        1.31029         3.13732        -1.41043
   N        2.17379         2.44387        -1.12992
   C        0.79953         5.47721        -1.85481
   C       -0.32357         6.49959        -1.75313
   C       -0.90190         6.48877        -0.33011
   O       -1.99626         7.37241        -0.17688
   C       -1.64833         8.73119        -0.09105
   C       -3.30551         5.68866         1.45508
   C       -4.67737         5.75955         1.29860
   N       -5.51984         4.83685         0.67437
   O       -6.51850         5.25377         0.11903
   O       -5.22086         3.64488         0.71869
   C       -5.14333         7.06683         1.70783
   C       -4.10174         7.75107         2.22171
   C       -2.92898         6.89978         2.21891
   C       -1.79359         7.02747         2.98006
   C       -0.58767         6.24300         2.84988
   C        0.42576         6.88773         3.47377
   C       -0.10154         8.06410         4.11755
   N        0.69865         8.91600         4.90436
   O        0.17198         9.86875         5.45478
   O        1.88545         8.65377         4.97413
   C       -1.47146         8.12569         3.92137
   C       -2.38439         8.97422         4.60760
   C       -3.64122         8.57119         4.91094
   C       -4.67170         9.34804         5.50762
   O       -5.91732         8.82192         5.39135
   C       -6.81140         9.67536         5.90740
   C       -6.11225        10.78042         6.41589
   C       -4.74547        10.57188         6.14376
   N       -6.65953        11.91943         7.05717
   O       -7.86371        11.95217         7.21467
   O       -5.88497        12.78574         7.40173
   C       -8.19584         9.38286         5.76495
   C       -8.57015         8.34801         4.96761
   C       -9.90820         7.98522         4.67506
   C      -10.22419         7.04834         3.73511
   C      -11.55224         6.58001         3.36399
   C      -12.73379         6.91350         3.97279
   C      -13.99468         6.41840         3.57522
   N      -15.04995         6.05638         3.30583
   C      -12.87410         7.77372         5.08237
   N      -13.07201         8.45237         5.98701
   C      -11.40570         5.66335         2.24156
   C      -10.02009         5.54333         1.92577
   C       -9.23274         6.36178         2.84803
   O       -8.02156         6.46018         2.87672
   C       -9.57399         4.75980         0.89817
   C      -10.50985         4.02401         0.14046
   C      -11.89768         4.13040         0.45265
   C      -12.33052         4.96602         1.50811
   C      -12.82148         3.39019        -0.31244
   C      -12.39458         2.58111        -1.33116
   C      -11.02814         2.47549        -1.63249
   C      -10.10207         3.18320        -0.91388
   H       -2.71573        -3.59356        -1.24706
   H       -6.41153        -0.29273        -0.66126
   H       -7.98513        -2.12095        -0.35751
   H       -8.46761        -4.53314        -0.24281
   H       -6.65926        -6.17811        -0.54251
   H       -4.35112        -5.42369        -0.95589
   H       -0.30997         1.15107        -1.10341
   H       -0.20065         3.74332        -2.69165
   H        1.31945         5.57698        -2.80840
   H        1.52585         5.65390        -1.05661
   H       -1.12538         6.26216        -2.45472
   H        0.06276         7.49203        -1.98634
   H       -0.10492         6.78030         0.38100
   H       -2.57433         9.26674         0.10744
   H       -1.21372         9.10416        -1.02288
   H       -0.93968         8.90620         0.72877
   H       -6.16591         7.37473         1.60475
   H       -4.11873         8.76188         2.57582
   H       -0.51319         5.32178         2.30846
   H        1.45783         6.59757         3.53000
   H       -2.00865         9.92405         4.96147
   H       -3.96404         7.57391         4.64280
   H       -3.94301        11.23282         6.39870
   H       -8.90108        10.03742         6.25493
   H       -7.79386         7.76945         4.48649
   H      -10.69192         8.49741         5.21749
   H       -8.52349         4.71504         0.65215
   H      -13.38805         5.03304         1.70870
   H      -13.87260         3.47276        -0.07705
   H      -13.11110         2.01729        -1.91010
   H      -10.70950         1.83120        -2.43789
   H       -9.04946         3.10373        -1.14006
*
