# ORCA input file
# SCF done       -195.401208643094          0.000955722206
! CAM-B3LYP def2-SVP def2/J RIJCOSX Grid4 TightSCF
%maxcore 5000
%tddft
    Mode sTDDFT
    Ethresh 5.0
    maxcore 5000
end

%pal
  nprocs 6
  end
* xyz 0 1
   C        1.61739         6.90750        -2.00846
   C        1.62860         7.70807        -0.89830
   C        2.73269         8.50025        -0.52281
   N        3.62444         9.13574        -0.17841
   C        0.52250         7.87847        -0.03951
   N       -0.36716         8.08972         0.65308
   C        2.65105         6.84651        -3.03426
   C        2.12875         6.16696        -4.17320
   C        2.88885         5.93639        -5.28363
   C        4.21956         6.40953        -5.31909
   C        4.73684         7.12115        -4.19888
   C        3.93669         7.31891        -3.05178
   C        6.05068         7.62935        -4.26502
   C        6.82056         7.44001        -5.38007
   C        6.31879         6.71732        -6.47331
   C        5.04627         6.21431        -6.44345
   C        0.73055         5.78097        -3.91756
   O       -0.04863         5.24483        -4.66576
   C        0.50143         6.10026        -2.46996
   C       -0.51831         5.49808        -1.81844
   C       -0.66538         5.28880        -0.39283
   C       -1.90018         5.49019         0.22146
   C       -3.19777         5.88014        -0.37438
   O       -3.47511         6.04581        -1.52847
   O       -4.09075         5.99971         0.63259
   C       -3.49238         5.75412         1.89546
   C       -2.07061         5.40507         1.59633
   C       -1.01101         5.08233         2.42405
   C        0.21111         4.81967         1.83238
   C        0.39543         4.89242         0.44834
   C        1.72177         4.63373        -0.08750
   N        1.99876         3.88892        -1.20942
   C        1.15204         2.88905        -1.81496
   C        0.78665         1.78819        -0.82541
   C        3.34849         4.02803        -1.59563
   O        3.81400         3.48704        -2.58270
   C        3.92074         4.90227        -0.60537
   C        2.89642         5.21509         0.33738
   C        3.44460         6.14267         1.30656
   O        2.96823         6.65825         2.29289
   N        4.76654         6.35012         0.86923
   C        5.65464         7.23611         1.58168
   C        6.67539         6.46852         2.41678
   C        5.05281         5.63978        -0.27310
   C        6.27259         5.74712        -0.99085
   C        6.48081         5.05353        -2.13848
   C        7.62835         5.15819        -2.96413
   S        7.68627         4.24432        -4.44211
   C        9.24017         4.89421        -4.86139
   C        9.67397         5.78978        -3.87689
   C        8.76519         5.92988        -2.81953
   C       10.84823         6.56355        -3.93139
   N       11.76148         7.25705        -3.92191
   C        9.86681         4.48108        -6.06164
   C       11.16786         4.69426        -6.39429
   C       11.69013         4.22941        -7.62501
   C       13.01001         4.24835        -7.96984
   C       13.58729         3.81346        -9.22927
   C       12.90569         3.45869       -10.36522
   C       13.52585         3.05016       -11.56485
   N       13.96448         2.70650       -12.56864
   C       11.50366         3.46875       -10.51549
   N       10.37291         3.46034       -10.71884
   C       15.03841         3.86226        -9.09381
   C       15.35997         4.37262        -7.80354
   C       14.11992         4.64194        -7.05624
   O       14.03212         5.05818        -5.92197
   C       16.65129         4.53451        -7.39175
   C       17.70281         4.17947        -8.26573
   C       17.39050         3.66102        -9.55586
   C       16.04334         3.51070        -9.95673
   C       18.44735         3.30026       -10.41656
   C       19.75011         3.44319       -10.02329
   C       20.05629         3.95503        -8.75337
   C       19.05456         4.31645        -7.89377
   H        2.47651         5.40718        -6.12948
   H        4.36337         7.83838        -2.20852
   H        6.43253         8.18407        -3.42028
   H        7.82155         7.84419        -5.42559
   H        6.94428         6.56743        -7.34061
   H        4.65255         5.66552        -7.28588
   H       -1.31655         5.10382        -2.44191
   H       -4.03891         4.94491         2.39216
   H       -3.57262         6.65993         2.50647
   H       -1.12542         5.04165         3.49513
   H        1.05940         4.55885         2.44580
   H        1.73371         2.47967        -2.64625
   H        0.24436         3.34633        -2.21957
   H        1.68536         1.32462        -0.42467
   H        0.19748         1.02745        -1.32921
   H        0.20283         2.19004         0.00053
   H        5.01566         7.83686         2.23425
   H        6.14791         7.90596         0.87254
   H        6.16523         5.85054         3.15151
   H        7.32075         7.16790         2.94062
   H        7.29001         5.82445         1.79103
   H        7.02279         6.42599        -0.61410
   H        5.71328         4.37553        -2.48738
   H        8.94397         6.58245        -1.98381
   H        9.24079         3.91087        -6.73845
   H       11.83716         5.20194        -5.71615
   H       10.97276         3.81831        -8.32444
   H       16.86636         4.92601        -6.40856
   H       15.84157         3.11298       -10.93856
   H       18.20673         2.90768       -11.39364
   H       20.55243         3.16227       -10.68891
   H       21.08988         4.06087        -8.45956
   H       19.28393         4.71099        -6.91476
*
