# ORCA input file
# SCF done       -263.521389056993          0.000999801187
! CAM-B3LYP def2-SVP def2/J RIJCOSX Grid4 TightSCF
%maxcore 5000
%tddft
    Mode sTDDFT
    Ethresh 5.0
    maxcore 5000
end

%pal
  nprocs 6
  end
* xyz 0 1
   C      -10.46769        -2.32343        -6.62008
   C       -9.75126        -2.62103        -7.74561
   F       -9.75881        -1.78511        -8.78876
   C       -8.99663        -3.81016        -7.82247
   F       -8.30552        -4.07664        -8.93640
   C       -8.96973        -4.68477        -6.77251
   C       -9.69842        -4.40689        -5.59943
   C      -10.46044        -3.20423        -5.51984
   C      -11.19676        -2.90359        -4.35158
   C      -11.17193        -3.77862        -3.29738
   C      -10.41635        -4.98300        -3.38786
   C       -9.69350        -5.29762        -4.50382
   C      -10.57905        -5.76568        -2.15118
   O      -10.09604        -6.84792        -1.89874
   C      -11.52483        -4.98005        -1.31160
   C      -11.80736        -3.72578        -1.98742
   C      -12.45875        -2.65629        -1.43881
   C      -12.89729        -2.62055        -0.09680
   N      -13.21463        -2.53080         1.00205
   C      -12.70288        -1.44552        -2.12175
   N      -12.92720        -0.44695        -2.63945
   C      -12.15905        -5.48892        -0.22532
   C      -11.79213        -6.70366         0.42622
   C      -12.62779        -7.76029         0.72765
   N      -14.00666        -7.81569         0.43803
   O      -14.63462        -8.76435         0.86127
   O      -14.48155        -6.89634        -0.20916
   C      -11.86514        -8.83543         1.30632
   C      -10.55974        -8.46815         1.31995
   C      -10.44089        -7.12889         0.80180
   C       -9.32661        -6.31172         0.81998
   C       -9.33755        -4.89979         1.02044
   C       -8.05571        -4.47093         1.23173
   C       -7.17037        -5.57798         1.09378
   N       -5.77149        -5.44819         1.17432
   O       -5.32766        -4.34594         1.43490
   O       -5.07939        -6.43880         0.98826
   C       -7.91465        -6.73262         0.79989
   C       -7.39264        -7.96261         0.37879
   C       -8.10875        -8.90082        -0.32770
   C       -7.70488       -10.16137        -0.78269
   N       -6.48248       -10.78439        -0.78466
   C       -5.21482       -10.29064        -0.29174
   C       -5.07851       -10.48701         1.21567
   C       -6.55090       -12.07158        -1.36227
   O       -5.60082       -12.80694        -1.50321
   C       -7.95103       -12.23108        -1.71518
   C       -8.62290       -11.06954        -1.36793
   C      -10.03473       -11.26149        -1.67297
   O      -10.99861       -10.55556        -1.50036
   N      -10.09714       -12.56028        -2.23308
   C      -11.36618       -13.09764        -2.67031
   C      -11.51508       -13.04052        -4.18778
   C       -8.86855       -13.15955        -2.26579
   C       -8.44029       -14.41425        -2.70627
   C       -9.16462       -15.46346        -3.21791
   C       -8.61693       -16.70797        -3.55570
   C       -9.32874       -17.92225        -3.60857
   N      -10.69751       -18.12369        -3.38215
   O      -11.06146       -19.26952        -3.16422
   O      -11.44989       -17.16022        -3.37301
   C       -8.40956       -19.00178        -3.74505
   C       -7.13727       -18.50275        -3.71057
   C       -7.19667       -17.08246        -3.60795
   C       -6.08249       -16.24820        -3.61057
   C       -5.88590       -15.04053        -4.33436
   C       -4.57214       -14.67946        -4.23211
   C       -3.90692       -15.60188        -3.36005
   N       -2.56191       -15.44699        -2.96520
   O       -2.10935       -16.21850        -2.13790
   O       -1.92850       -14.55305        -3.49276
   C       -4.80522       -16.57684        -2.94570
   C       -4.60588       -17.57521        -1.95733
   C       -5.56044       -18.11212        -1.14725
   C       -6.88048       -17.59679        -0.99085
   C       -8.05478       -18.20847        -0.67766
   C       -9.23452       -17.33216        -0.43912
   O       -9.24037       -16.11740        -0.49605
   C      -10.35727       -18.22791        -0.15369
   C      -11.66671       -17.90833         0.07054
   C      -12.60067       -18.94641         0.26954
   C      -12.15220       -20.29879         0.24310
   C      -13.08775       -21.33418         0.43981
   C      -14.40596       -21.03972         0.64815
   C      -14.84850       -19.70086         0.66968
   C      -13.96557       -18.67430         0.48462
   F      -16.14542       -19.44379         0.87750
   F      -15.29373       -22.02295         0.83648
   C      -10.79253       -20.59742         0.00431
   C       -9.90193       -19.57689        -0.20421
   C       -8.48911       -19.59144        -0.58255
   C       -7.79421       -20.72486        -0.91105
   C       -6.53883       -20.79449        -1.54826
   N       -5.56416       -20.96186        -2.13228
   C       -8.29119       -22.03712        -0.73934
   N       -8.60260       -23.13319        -0.60438
   H      -11.03841        -1.40895        -6.57767
   H       -8.38783        -5.58997        -6.84779
   H      -11.77006        -1.99095        -4.32114
   H       -9.12733        -6.21551        -4.55009
   H      -13.05820        -5.00650         0.14286
   H      -12.29840        -9.75721         1.64305
   H       -9.74579        -9.02243         1.74523
   H      -10.22550        -4.30501         1.12047
   H       -7.73238        -3.47339         1.46340
   H       -6.34218        -8.10593         0.58636
   H       -9.12430        -8.65908        -0.61335
   H       -5.09443        -9.24219        -0.57016
   H       -4.44422       -10.87667        -0.80077
   H       -5.90100       -10.02071         1.75303
   H       -4.14742       -10.04297         1.55429
   H       -5.06697       -11.54777         1.45378
   H      -12.13320       -12.47074        -2.20655
   H      -11.47650       -14.11769        -2.29687
   H      -11.50828       -12.00678        -4.52500
   H      -12.45854       -13.49434        -4.47572
   H      -10.70827       -13.57362        -4.68518
   H       -7.37888       -14.55516        -2.54953
   H      -10.24037       -15.40345        -3.29025
   H       -8.70373       -20.02830        -3.85988
   H       -6.23005       -19.06304        -3.82855
   H       -6.63137       -14.57520        -4.95047
   H       -4.08285       -13.84708        -4.70090
   H       -3.58297       -17.90944        -1.83487
   H       -5.27502       -18.93938        -0.51328
   H       -6.97595       -16.51523        -1.06852
   H      -11.98549       -16.87712         0.07715
   H      -12.76755       -22.36413         0.41998
   H      -14.32002       -17.65564         0.50012
   H      -10.49498       -21.63241        -0.02109
*
