# ORCA input file
# SCF done       -206.062591747988          0.000274354767
! CAM-B3LYP def2-SVP def2/J RIJCOSX Grid4 TightSCF
%maxcore 5000
%tddft
    Mode sTDDFT
    Ethresh 5.0
    maxcore 5000
end

%pal
  nprocs 6
  end
* xyz 0 1
   C       -6.72592         0.68250         5.99905
   N       -7.83003         1.26478         5.46022
   C       -9.19428         0.86102         5.68863
   C       -9.53692        -0.41788         4.92886
   C       -7.48126         2.30746         4.56630
   O       -8.29836         2.97506         3.96370
   C       -6.04170         2.32411         4.60885
   C       -5.60980         1.30162         5.50828
   C       -4.16325         1.33570         5.53796
   O       -3.34340         0.67520         6.13578
   N       -3.81581         2.37736         4.64606
   C       -2.42627         2.72625         4.47903
   C       -2.04925         3.97032         5.28071
   C       -4.92964         2.97536         4.09390
   C       -5.04146         4.04306         3.16371
   C       -4.07988         4.77588         2.54969
   C       -4.35599         5.83265         1.64194
   C       -5.56202         6.32634         1.18693
   C       -5.41156         7.39826         0.30911
  Cl       -6.75365         8.19735        -0.39953
   C       -4.09258         7.76371         0.05844
   S       -3.02544         6.72098         0.95060
   C       -3.61041         8.81009        -0.76249
   C       -2.29304         9.16737        -1.03285
  Cl       -0.94865         8.32488        -0.38614
   C       -2.15178        10.26735        -1.87348
   C       -3.36304        10.79998        -2.27926
   S       -4.68542         9.89274        -1.59280
   C       -3.49660        11.93573        -3.11649
   N       -4.66695        12.52742        -3.53615
   C       -6.02334        12.08655        -3.32268
   C       -6.41490        10.96346        -4.27905
   C       -4.42283        13.66721        -4.32585
   O       -5.31179        14.35423        -4.79528
   C       -2.98857        13.76631        -4.38524
   C       -2.44450        12.69021        -3.63711
   C       -1.00435        12.79485        -3.69918
   O       -0.11143        12.11510        -3.22769
   N       -0.77010        13.92900        -4.49091
   C        0.56964        14.39862        -4.74603
   C        0.94241        15.57121        -3.84199
   C       -1.94074        14.52681        -4.90224
   C       -1.99219        15.69013        -5.70310
   C       -3.16096        16.28589        -6.06074
   C       -3.24396        17.45669        -6.84652
   C       -4.39415        18.13106        -7.20652
   C       -4.14979        19.26646        -7.97783
  Cl       -5.39628        20.29586        -8.55373
   C       -2.80221        19.49745        -8.24126
   S       -1.83621        18.25905        -7.49410
   C       -2.23323        20.55533        -8.99111
   C       -0.89313        20.77941        -9.28565
  Cl        0.37769        19.75270        -8.75858
   C       -0.65387        21.91505       -10.05390
   C       -1.80984        22.60547       -10.36905
   S       -3.21098        21.80981        -9.69173
   C       -2.03586        23.80153       -11.10051
   N       -1.11040        24.59586       -11.74261
   C        0.30355        24.37289       -11.91673
   C        0.58796        23.29557       -12.96065
   C       -1.71437        25.72441       -12.34119
   O       -1.08322        26.55932       -12.95812
   C       -3.11536        25.59993       -12.02510
   C       -3.27527        24.40610       -11.26888
   C       -4.66704        24.26800       -10.93957
   O       -5.27708        23.41228       -10.32220
   N       -5.27416        25.39456       -11.52012
   C       -6.68621        25.63985       -11.35783
   C       -6.96161        26.64728       -10.24382
   C       -4.35961        26.19679       -12.16381
   C       -4.71224        27.41064       -12.84230
   C       -3.81431        28.18400       -13.45634
   H       -6.81455        -0.12643         6.70062
   H       -9.82224         1.68378         5.33607
   H       -9.35383         0.72109         6.76209
   H       -9.39625        -0.26660         3.86145
   H      -10.57348        -0.68849         5.10907
   H       -8.89984        -1.23874         5.25100
   H       -2.19947         2.84665         3.41686
   H       -1.86067         1.86926         4.85840
   H       -2.66499         4.82207         5.00070
   H       -1.00552         4.21853         5.10820
   H       -2.18988         3.77869         6.34160
   H       -6.07615         4.26985         2.94263
   H       -3.03090         4.59876         2.72668
   H       -6.52113         5.93650         1.47174
   H       -1.20033        10.66808        -2.17807
   H       -6.65128        12.96171        -3.51607
   H       -6.15659        11.77902        -2.28280
   H       -6.33413        11.30887        -5.30687
   H       -7.44149        10.66372        -4.09009
   H       -5.77099        10.09716        -4.14948
   H        0.66627        14.67413        -5.79989
   H        1.23054        13.55199        -4.53976
   H        0.26979        16.41186        -3.99697
   H        1.95852        15.89158        -4.05474
   H        0.88393        15.26801        -2.79954
   H       -1.05966        16.12344        -6.03871
   H       -4.10163        15.86449        -5.73003
   H       -5.37700        17.81028        -6.91570
   H        0.33854        22.19462       -10.34799
   H        0.76145        24.13318       -10.95407
   H        0.70876        25.32852       -12.26400
   H        0.11547        22.35325       -12.69320
   H        1.65990        23.14009       -13.04746
   H        0.20374        23.61091       -13.92758
   H       -7.13112        24.67538       -11.09633
   H       -7.11305        25.97906       -12.30566
   H       -6.57153        26.27098        -9.30129
   H       -8.03242        26.80017       -10.14074
   H       -6.48848        27.60341       -10.45709
   H       -5.75824        27.68458       -12.84180
   H       -2.76746        27.93116       -13.46851
   H       -4.10939        29.08857       -13.95943
*
