# ORCA input file
# SCF done       -195.526860683679          0.000759499905
! CAM-B3LYP def2-SVP def2/J RIJCOSX Grid4 TightSCF
%maxcore 5000
%tddft
    Mode sTDDFT
    Ethresh 5.0
    maxcore 5000
end

%pal
  nprocs 6
  end
* xyz 0 1
   C       -4.78406         1.18788        -7.94551
   S       -4.74959        -0.52163        -7.92196
   C       -5.85230        -0.58047        -6.59174
   C       -6.22510         0.68639        -6.20579
   C       -5.60207         1.70212        -6.98470
   N       -5.66839         3.11884        -6.71386
   O       -5.60550         3.85872        -7.66397
   O       -5.70889         3.43973        -5.55168
   N       -7.25062         0.89132        -5.22494
   O       -7.40238         0.00397        -4.41013
   O       -7.90857         1.89629        -5.31093
   C       -6.36637        -1.82591        -6.05384
   C       -7.47557        -2.48125        -6.52771
   N       -8.27862        -2.04565        -7.60229
   O       -9.22269        -2.73537        -7.92271
   O       -7.95707        -1.00190        -8.15036
   C       -7.70597        -3.67905        -5.75128
   C       -6.70754        -3.78721        -4.85113
   C       -5.80524        -2.66124        -4.99592
   C       -4.65883        -2.39758        -4.28328
   C       -4.01503        -1.12954        -4.13279
   C       -3.09221        -1.22761        -3.14148
   C       -3.05366        -2.57995        -2.65345
   N       -2.10374        -2.93804        -1.67791
   O       -1.18608        -2.15968        -1.49444
   O       -2.23794        -3.98311        -1.05912
   C       -3.96635        -3.35069        -3.37570
   C       -4.13778        -4.74055        -3.52809
   C       -3.78539        -5.73207        -2.65123
   C       -3.98822        -7.09264        -2.94720
   N       -3.67517        -8.11041        -2.08109
   C       -3.13773        -7.96391        -0.74663
   C       -4.22992        -7.62060         0.26217
   C       -3.99641        -9.36964        -2.60335
   O       -3.80717       -10.41707        -2.02132
   C       -4.55041        -9.08371        -3.91580
   C       -4.52577        -7.68768        -4.10221
   C       -5.08154        -7.40362        -5.40915
   O       -5.26487        -6.36317        -6.00876
   N       -5.42138        -8.66809        -5.92559
   C       -5.97012        -8.80535        -7.25401
   C       -4.90479        -9.21992        -8.26582
   C       -5.10772        -9.67930        -5.05428
   C       -5.35523       -11.05233        -5.31416
   C       -5.04882       -12.02247        -4.41969
   C       -5.28659       -13.43333        -4.58469
   C       -5.06970       -14.27593        -3.48973
   C       -5.30501       -15.63507        -3.58634
   N       -5.00202       -16.46187        -2.44146
   O       -4.89439       -15.91488        -1.36946
   O       -4.85797       -17.65198        -2.63401
   C       -5.76615       -16.21999        -4.77550
   C       -5.94857       -15.37535        -5.87378
   C       -5.71854       -14.02110        -5.78391
   C       -6.10897       -17.62873        -4.87530
   C       -5.72994       -18.40422        -5.89975
   C       -6.11961       -19.78093        -6.05424
   S       -5.01826       -20.94514        -6.73354
   C       -6.13268       -22.21516        -6.52557
   C       -7.30443       -21.78179        -5.96819
   C       -7.30093       -20.38770        -5.69793
   N       -8.41439       -19.66707        -5.11174
   O       -8.83936       -18.73019        -5.74294
   O       -8.78671       -20.03545        -4.02834
   N       -8.44470       -22.63906        -5.79881
   O       -8.23190       -23.82765        -5.75845
   O       -9.52613       -22.10224        -5.74985
   H       -4.19110         1.74543        -8.64417
   H       -8.54890        -4.32551        -5.89716
   H       -6.62858        -4.53159        -4.08536
   H       -4.29053        -0.22876        -4.64094
   H       -2.47038        -0.44558        -2.74726
   H       -4.59801        -5.03796        -4.46131
   H       -3.35845        -5.47890        -1.69367
   H       -2.36015        -7.19702        -0.74971
   H       -2.68913        -8.92723        -0.49044
   H       -4.70751        -6.67613         0.01254
   H       -3.79511        -7.53708         1.25353
   H       -4.98537        -8.40272         0.27838
   H       -6.36630        -7.82216        -7.52189
   H       -6.79501        -9.52248        -7.23626
   H       -4.11731        -8.47141        -8.30346
   H       -5.34980        -9.30359        -9.25312
   H       -4.45943       -10.17588        -7.99861
   H       -5.82251       -11.29626        -6.25669
   H       -4.60062       -11.73503        -3.47717
   H       -4.71123       -13.87356        -2.55315
   H       -6.31090       -15.80337        -6.79556
   H       -5.87327       -13.40884        -6.65800
   H       -6.69223       -18.03894        -4.06245
   H       -5.03684       -18.02845        -6.63994
   H       -5.90839       -23.21825        -6.83243
*
