# ORCA input file
# SCF done       -169.641949825990          0.000313913621
! CAM-B3LYP def2-SVP def2/J RIJCOSX Grid4 TightSCF
%maxcore 5000
%tddft
    Mode sTDDFT
    Ethresh 5.0
    maxcore 5000
end

%pal
  nprocs 6
  end
* xyz 0 1
   C        1.61198         1.08205        -3.50141
   S       -0.11625         1.08101        -3.61419
   C       -0.21900         0.07725        -2.21445
   C        1.04646        -0.22002        -1.71399
   C        2.09277         0.35948        -2.45701
   S        0.99298        -1.23354        -0.29992
   C       -0.74709        -1.25667        -0.38802
   C       -1.74272        -1.86577         0.38690
   C       -3.00465        -1.59601        -0.08057
   S       -2.96176        -0.56520        -1.50592
   C       -1.24206        -0.51445        -1.45806
   C       -4.27595        -2.04734         0.43498
   C       -5.46838        -1.57342        -0.13057
   C       -6.67397        -2.00952         0.35789
   C       -6.72482        -2.92525         1.42278
   C       -5.55178        -3.40849         1.98395
   C       -4.34102        -2.96796         1.48915
   C       -8.11125        -3.19173         1.73369
   C       -8.91937        -2.45308         0.85051
   C       -8.06642        -1.65094        -0.10571
   C       -8.29338        -2.09354        -1.56402
   C       -8.03638        -3.57963        -1.78099
   C       -8.33850        -0.14052         0.01486
   C       -8.14481         0.38723         1.43080
   C      -10.28662        -2.53189         0.92651
   C      -10.88971        -3.33570         1.91111
   C      -10.06543        -4.06113         2.78672
   C       -8.69108        -4.00150         2.70041
   C      -12.32448        -3.40323         1.96904
   C      -13.05483        -3.92171         2.98864
   C      -14.46056        -4.01730         3.00056
   C      -15.16604        -4.51148         4.06588
   C      -16.56463        -4.71205         4.18489
   C      -16.96272        -5.23365         5.37845
   C      -15.90220        -5.46387         6.28330
   S      -14.37521        -5.00953         5.55578
   C      -15.93048        -5.94967         7.57305
   C      -17.00575        -6.40404         8.36745
   C      -16.65261        -6.80887         9.62043
   C      -15.26915        -6.68893         9.90206
   S      -14.43352        -6.05529         8.47677
   C      -14.57188        -6.95783        11.04514
   N      -13.23489        -6.71356        11.08017
   C      -12.33101        -6.86013        12.06526
   S      -12.70646        -7.58870        13.59063
   C      -11.04441        -7.38108        14.07065
   N      -10.69844        -7.81253        15.34438
   O       -9.53910        -7.67593        15.70331
   O      -11.59473        -8.30264        16.02050
   C      -10.26439        -6.78746        13.10998
   C      -10.97987        -6.46845        11.94631
   C      -10.48352        -5.79502        10.78055
   C       -9.19785        -5.50998        10.48828
   C       -8.81111        -4.80099         9.31090
   S       -7.10169        -4.54969         8.98726
   C       -7.46961        -3.67989         7.54604
   C       -8.84954        -3.60165         7.34529
   C       -9.60370        -4.23652         8.33480
   S       -9.27754        -2.70097         5.91529
   C       -7.59067        -2.42287         5.59590
   C       -6.89803        -1.72121         4.59241
   C       -5.55494        -1.79155         4.77993
   S       -5.09301        -2.70777         6.17513
   C       -6.75264        -3.01149         6.54195
   H        2.17081         1.63032        -4.23326
   H        3.13563         0.24434        -2.22720
   H       -1.53021        -2.46868         1.24958
   H       -5.42326        -0.86833        -0.94840
   H       -5.58102        -4.12275         2.79291
   H       -3.42803        -3.34805         1.91970
   H       -7.63166        -1.51361        -2.21083
   H       -9.32312        -1.85944        -1.84257
   H       -7.00703        -3.83142        -1.53564
   H       -8.21591        -3.84139        -2.82112
   H       -8.69432        -4.17938        -1.15578
   H       -9.36320         0.05696        -0.30690
   H       -7.66724         0.39017        -0.66345
   H       -8.82722        -0.10768         2.11943
   H       -8.34259         1.45625         1.46345
   H       -7.12279         0.21790         1.76477
   H      -10.91243        -1.97210         0.24556
   H      -10.51530        -4.69741         3.53247
   H       -8.07519        -4.57817         3.37460
   H      -12.85283        -2.98433         1.12076
   H      -12.55111        -4.29061         3.87258
   H      -15.01453        -3.70156         2.12652
   H      -17.23177        -4.46753         3.37682
   H      -17.98367        -5.45242         5.63687
   H      -18.01224        -6.42133         7.98892
   H      -17.34157        -7.18323        10.35614
   H      -15.03935        -7.34861        11.93435
   H      -12.86214        -6.33695        10.21312
   H       -9.22158        -6.58482        13.26925
   H      -11.22937        -5.47006        10.06773
   H       -8.39868        -5.81898        11.14551
   H      -10.67715        -4.26405         8.32817
   H       -7.37098        -1.20036         3.78229
   H       -4.78525        -1.35901         4.17266
*
