# ORCA input file
# SCF done       -150.503637417705          0.000631248515
! CAM-B3LYP def2-SVP def2/J RIJCOSX Grid4 TightSCF
%maxcore 5000
%tddft
    Mode sTDDFT
    Ethresh 5.0
    maxcore 5000
end

%pal
  nprocs 6
  end
* xyz 0 1
   C       -3.50655        -0.94947        -0.63560
   C       -2.76988        -1.53080        -1.64410
   C       -2.16136        -2.79449        -1.53935
   N       -1.61925        -3.80782        -1.50143
   C       -2.47064        -0.93586        -2.88479
   N       -2.15988        -0.52620        -3.91283
   C       -3.74119        -1.55560         0.67845
   C       -4.44444        -0.62276         1.47456
   C       -4.76114        -0.84193         2.78957
   C       -4.33508        -2.04425         3.36253
   C       -3.64550        -2.97966         2.56174
   C       -3.35376        -2.76625         1.21795
   S       -3.15065        -4.36443         3.48517
   C       -3.85192        -3.66293         4.91796
   C       -4.44754        -2.46584         4.71491
  Br       -3.70060        -4.54837         6.56519
   C       -4.67364         0.60238         0.68833
   O       -5.27102         1.58902         1.09047
   C       -4.08025         0.36887        -0.62274
   C       -4.13125         1.26717        -1.68402
   C       -4.48795         2.60291        -1.65227
   C       -4.53793         3.44562        -2.79899
   C       -4.81581         4.80477        -2.49943
   N       -4.90531         5.72656        -3.46252
   C       -4.71578         5.29357        -4.68936
   C       -4.42876         3.94727        -4.99878
   C       -4.24253         3.49637        -6.41295
   C       -5.59557         3.37348        -7.11686
   N       -4.34364         3.03061        -4.05332
   C       -4.95724         5.04425        -1.10228
   S       -4.81569         3.55288        -0.22392
   C       -5.22674         6.25814        -0.48867
   C       -5.29282         6.44055         0.88695
   C       -5.63324         7.61340         1.59567
   C       -5.61509         7.47492         2.95930
   C       -5.23451         6.19049         3.38388
   S       -4.93279         5.15668         2.00589
   C       -5.06470         5.62936         4.64467
   C       -5.39157         6.11769         5.92767
   C       -5.12883         5.22858         6.92991
   C       -4.55721         4.00917         6.48674
   S       -4.36813         4.03555         4.74459
   C       -4.18704         2.91692         7.23493
   C       -3.55606         1.79635         6.66435
   O       -3.21732         1.81304         5.35489
   C       -2.59613         0.66231         5.05720
   C       -2.53015        -0.14551         6.17790
   C       -3.14089         0.57231         7.21526
   O       -3.32830         0.21187         8.49827
   C       -2.09532         0.48578         3.71391
   N       -2.24980         1.51935         2.88486
   C       -1.78122         1.37487         1.66102
   C       -1.14945         0.21448         1.24373
   C       -1.03083        -0.81733         2.18466
   N       -1.51216        -0.67180         3.41827
   C       -0.38168        -2.07682         1.84271
   C       -0.10523        -3.01550         2.73973
   H       -5.28523        -0.09467         3.36451
   H       -2.82416        -3.51589         0.65460
   H       -4.93487        -1.89421         5.48345
   H       -3.85447         0.91575        -2.67097
   H       -4.78363         6.03856        -5.47066
   H       -3.74557         2.52622        -6.40161
   H       -3.61710         4.21499        -6.94685
   H       -6.21935         2.64524        -6.60382
   H       -5.45397         3.04666        -8.14384
   H       -6.11521         4.32961        -7.12474
   H       -5.39133         7.11054        -1.13340
   H       -5.88975         8.52452         1.08421
   H       -5.84602         8.26600         3.65063
   H       -5.82716         7.08984         6.07608
   H       -5.32344         5.41091         7.97222
   H       -4.36469         2.89586         8.29865
   H       -2.08463        -1.11806         6.22723
   H       -2.97006        -0.67246         8.64624
   H       -1.91808         2.22239         1.00124
   H       -0.75632         0.10862         0.24541
   H       -0.12454        -2.20465         0.80006
   H       -0.35479        -2.86748         3.77670
   H        0.37333        -3.93968         2.46736
*
