# ORCA input file
# SCF done       -210.731040182178          0.000969583835
! CAM-B3LYP def2-SVP def2/J RIJCOSX Grid4 TightSCF
%maxcore 5000
%tddft
    Mode sTDDFT
    Ethresh 5.0
    maxcore 5000
end

%pal
  nprocs 6
  end
* xyz 0 1
   C       -2.91212         0.90309         3.54058
   C       -1.90766         0.36299         2.77728
   C       -0.93535        -0.52795         3.27365
   N       -0.12661        -1.26381         3.62473
   C       -1.66918         0.68642         1.42514
   N       -1.39143         0.94693         0.34147
   C       -3.07035         0.72963         4.98086
   C       -4.07200         1.62348         5.43286
   C       -4.44165         1.71713         6.75182
   C       -3.79690         0.88063         7.66972
   C       -2.80368        -0.01470         7.20808
   C       -2.42476        -0.10393         5.87363
   S       -2.14225        -0.96060         8.50746
   C       -3.19330        -0.14889         9.63767
   C       -3.99954         0.78116         9.07378
  Br       -3.12964        -0.60847        11.45537
   C       -4.60558         2.37599         4.28014
   O       -5.45091         3.25196         4.32476
   C       -3.92836         1.83458         3.09804
   C       -4.28061         2.05589         1.78822
   C       -5.19237         2.96736         1.24387
   S       -6.01196         4.23502         2.11504
   C       -6.70503         4.86064         0.65513
   C       -6.32689         4.10471        -0.45749
   C       -5.49696         3.03950        -0.12696
   C       -4.98432         2.06994        -1.14003
   C       -5.71753         2.18353        -2.47993
   C       -5.01230         1.27012        -3.49886
   O       -4.24043         0.41986        -3.15838
   O       -5.34695         1.44260        -4.77305
   C       -5.81924         3.65973        -2.88378
   O       -6.40340         3.76728        -4.17776
   C       -6.70254         4.40439        -1.87394
   C       -7.54485         6.00225         0.79046
   C       -8.41978         6.49981        -0.11103
   C       -9.26994         7.64745         0.08287
   C       -9.14666         8.51569         1.18101
   C      -10.01153         9.57180         1.31113
   C      -11.02418         9.79802         0.35971
   C      -11.14640         8.95941        -0.74032
   C      -10.27029         7.90277        -0.86865
   C      -11.79255        10.94925         0.76860
   C      -11.25180        11.44769         1.96832
   C      -10.07052        10.61238         2.40550
   C      -10.32365         9.96489         3.77988
   C      -11.58776         9.11425         3.80888
   C       -8.77818        11.44771         2.45848
   C       -8.45873        12.12595         1.13172
   C      -11.80643        12.54076         2.58221
   C      -12.94505        13.15593         2.02807
   C      -13.46416        12.64930         0.82463
   C      -12.89770        11.56363         0.19302
   C      -13.52602        14.27096         2.72119
   C      -14.76606        14.78553         2.50536
   C      -15.36651        15.86638         3.18441
   C      -14.82331        16.75686         4.07877
   C      -15.54794        17.79984         4.71161
   C      -14.80617        18.59507         5.53065
   C      -13.44281        18.23782         5.59236
   S      -13.14434        16.83480         4.58566
   C      -12.43305        18.85867         6.30216
   C      -12.54027        19.97352         7.16321
   C      -11.35461        20.36892         7.70174
   C      -10.23442        19.59905         7.29738
   S      -10.76962        18.32665         6.20820
   C       -8.93803        19.82591         7.67906
   C       -7.77102        19.13131         7.29563
   C       -7.61697        18.02273         6.45993
   C       -6.23656        17.71197         6.37001
   C       -5.56398        16.72946         5.67825
   C       -4.16443        16.69399         5.78816
   C       -3.21348        15.85556         5.22572
   C       -1.91175        16.26100         5.65842
   C       -2.05938        17.35246         6.49466
   C       -3.45164        17.66035         6.60533
   C       -4.11559        18.63580         7.29872
   C       -5.52270        18.67527         7.18943
   C       -6.46121        19.52161         7.74409
   C       -0.69625        15.59819         5.24828
   C        0.53562        15.95140         5.60500
   H       -5.20507         2.41126         7.06664
   H       -1.66401        -0.80375         5.57020
   H       -4.70875         1.37347         9.62278
   H       -3.79093         1.43408         1.04927
   H       -5.08456         1.04533        -0.77792
   H       -3.91490         2.23678        -1.30726
   H       -6.73824         1.79169        -2.38210
   H       -5.91040         2.23339        -4.88779
   H       -4.80872         4.09515        -2.89550
   H       -6.42706         4.69374        -4.43885
   H       -7.73866         4.09848        -2.05775
   H       -6.63044         5.48159        -2.05174
   H       -7.47696         6.46688         1.76517
   H       -8.55968         5.99177        -1.05334
   H       -8.37220         8.35399         1.91476
   H      -11.91408         9.12871        -1.48056
   H      -10.36037         7.23941        -1.71776
   H      -10.40246        10.75574         4.52861
   H       -9.46339         9.34403         4.03910
   H      -12.46165         9.71743         3.57236
   H      -11.72516         8.68181         4.79730
   H      -11.52343         8.30470         3.08503
   H       -7.95001        10.79412         2.74113
   H       -8.88585        12.20651         3.23630
   H       -8.33102        11.38716         0.34337
   H       -7.53975        12.70144         1.21642
   H       -9.26175        12.80038         0.84290
   H      -11.39507        12.93005         3.50275
   H      -14.31773        13.13114         0.37332
   H      -13.30987        11.19488        -0.73478
   H      -12.92133        14.68170         3.51753
   H      -15.39922        14.31258         1.76604
   H      -16.41377        16.03672         2.96412
   H      -16.60186        17.92813         4.53625
   H      -15.20039        19.43155         6.07942
   H      -13.48359        20.45011         7.36085
   H      -11.24282        21.19907         8.37737
   H       -8.78970        20.66102         8.35375
   H       -8.39758        17.48287         5.95981
   H       -6.08829        16.00908         5.06641
   H       -3.40814        15.02879         4.56537
   H       -1.27482        17.89429         6.98857
   H       -3.59349        19.35883         7.91007
   H       -6.26514        20.34909         8.40309
   H       -0.83821        14.74613         4.59453
   H        0.72486        16.78981         6.25317
   H        1.39951        15.40899         5.26207
*
