# ORCA input file
# SCF done       -204.757546736902          0.000685177451
! CAM-B3LYP def2-SVP def2/J RIJCOSX Grid4 TightSCF
%maxcore 5000
%tddft
    Mode sTDDFT
    Ethresh 5.0
    maxcore 5000
end

%pal
  nprocs 6
  end
* xyz 0 1
   C        0.09142        -4.62275         6.28485
   O       -0.42752        -5.67808         5.99881
   C        0.51298        -4.20665         7.64326
   C        1.07928        -2.92158         7.59969
   C        1.55530        -2.34176         8.76772
   C        1.45439        -3.05169         9.95396
   C        0.88637        -4.31937         9.97428
   C        0.40719        -4.92109         8.81880
  Br        0.76656        -5.25195        11.62555
   C        1.04190        -2.44244         6.22305
   C        1.36104        -1.17720         5.80936
   C        1.84264        -0.16497         6.66650
   N        2.23844         0.69551         7.31462
   C        1.21788        -0.69603         4.48963
   N        1.10608        -0.22226         3.44993
   C        0.51409        -3.51378         5.39157
   C        0.62563        -3.56386         4.03489
   C        0.08089        -4.52771         3.12417
   C       -1.14475        -5.17634         3.35021
   C       -1.60661        -6.07442         2.42236
   C       -0.86705        -6.35741         1.25905
   C        0.33491        -5.70296         1.01331
   C        0.78497        -4.78234         1.93296
   C       -1.59504        -7.32889         0.47636
   C       -2.79093        -7.63868         1.14796
   C       -2.88500        -6.87739         2.44857
   C       -2.91040        -7.83449         3.65641
   C       -1.70159        -8.76085         3.70420
   C       -4.12497        -5.96593         2.48461
   C       -4.17435        -4.98800         1.31674
   C       -3.68220        -8.53127         0.60592
   C       -3.39952        -9.14422        -0.62483
   C       -2.19619        -8.83221        -1.27479
   C       -1.29784        -7.93493        -0.73702
   C       -4.34395       -10.10682        -1.14401
   C       -4.19618       -10.81632        -2.27389
   N       -5.08823       -11.77733        -2.68166
   C       -4.89473       -12.67957        -3.68220
   S       -6.31173       -13.33566        -4.45416
   C       -5.30039       -14.20338        -5.56570
   N       -5.91685       -15.01623        -6.51325
   O       -5.20310       -15.61666        -7.29920
   O       -7.13778       -15.06619        -6.48770
   C       -3.96488       -13.98860        -5.34520
   C       -3.70416       -13.14307        -4.25265
   C       -2.34245       -12.90597        -3.80270
   C       -1.96654       -12.72600        -2.52930
   C       -0.62202       -12.44348        -2.06538
   C        0.51910       -12.76324        -2.81200
   C        1.76079       -12.45692        -2.31116
   C        1.89693       -11.80955        -1.07114
   C        0.77360       -11.47787        -0.32912
   C       -0.47114       -11.81114        -0.82554
   C        3.30865       -11.63909        -0.79361
   C        4.04251       -12.19017        -1.85614
   C        3.11622       -12.73904        -2.91644
   C        3.33275       -14.24877        -3.12665
   C        3.16558       -15.05333        -1.84327
   C        3.29854       -12.00020        -4.25547
   C        3.10159       -10.49424        -4.13057
   C        5.41633       -12.19037        -1.83464
   C        6.09087       -11.63398        -0.74042
   C        5.34687       -11.07622         0.30462
   C        3.96578       -11.07335         0.28829
   C        7.54300       -11.64925        -0.68446
   C        8.35789       -10.79005         0.03236
   C        9.72069       -11.16672        -0.17412
   C       10.89693       -10.65031         0.31165
   C       12.09378       -11.27781        -0.07706
   C       13.42058       -11.01117         0.24222
   C       14.25814       -11.96120        -0.41619
   C       13.44483       -12.81282        -1.14428
   C       12.08229       -12.42313        -0.95911
   C       10.90672       -12.93769        -1.44658
   C        9.70949       -12.31101        -1.05575
   C        8.38119       -12.58612        -1.35944
   C       15.69767       -12.04377        -0.34789
   C       16.48790       -11.24573         0.36457
   H        2.00504        -1.36251         8.77174
   H        1.82147        -2.61754        10.87121
   H       -0.03145        -5.90688         8.82840
   H        1.24494        -2.80665         3.56633
   H       -1.72599        -4.93998         4.22545
   H        0.89841        -5.90303         0.11455
   H        1.71390        -4.25889         1.75751
   H       -3.82557        -8.42892         3.61029
   H       -2.93772        -7.24036         4.57115
   H       -1.62562        -9.34881         2.79149
   H       -1.78955        -9.44175         4.54733
   H       -0.78712        -8.18542         3.82537
   H       -4.12216        -5.41037         3.42436
   H       -5.01934        -6.59236         2.47089
   H       -3.30509        -4.33403         1.32472
   H       -5.06798        -4.37184         1.38249
   H       -4.19287        -5.52128         0.36867
   H       -4.60282        -8.77119         1.11885
   H       -1.95797        -9.30403        -2.21474
   H       -0.37618        -7.71281        -1.25352
   H       -5.22159       -10.28138        -0.53307
   H       -3.35403       -10.68436        -2.93141
   H       -5.99390       -11.78760        -2.23038
   H       -3.20265       -14.46206        -5.93775
   H       -1.60217       -12.93336        -4.59044
   H       -2.71816       -12.73412        -1.75037
   H        0.41964       -13.27368        -3.75813
   H        0.86593       -10.97846         0.62390
   H       -1.35586       -11.56445        -0.25515
   H        4.33760       -14.40562        -3.52457
   H        2.61999       -14.60543        -3.87342
   H        3.87927       -14.72686        -1.09004
   H        3.33000       -16.11040        -2.03941
   H        2.16267       -14.92951        -1.44053
   H        2.58376       -12.40137        -4.97745
   H        4.30303       -12.20306        -4.63283
   H        2.10013       -10.26668        -3.77135
   H        3.23861       -10.01670        -5.09818
   H        3.82036       -10.07093        -3.43242
   H        5.97845       -12.60360        -2.65879
   H        5.86776       -10.65951         1.15351
   H        3.40961       -10.64561         1.10958
   H        8.04035        -9.95637         0.63113
   H       10.91311        -9.79615         0.97461
   H       13.76278       -10.21772         0.88138
   H       13.77427       -13.63742        -1.75042
   H       10.89029       -13.79391        -2.10688
   H        8.03721       -13.39617        -1.97732
   H       16.13550       -12.83846        -0.93969
   H       16.10091       -10.44297         0.96847
   H       17.55710       -11.36841         0.36719
*
