# ORCA input file
# SCF done       -210.404286149371          0.000439243304
! CAM-B3LYP def2-SVP def2/J RIJCOSX Grid4 TightSCF
%maxcore 5000
%tddft
    Mode sTDDFT
    Ethresh 5.0
    maxcore 5000
end

%pal
  nprocs 6
  end
* xyz 0 1
   C        4.12825        -6.52594        17.05071
   C        3.75118        -5.45733        16.33693
   C        3.80270        -4.07677        16.72832
   C        3.34667        -3.21313        15.79627
   C        2.89608        -3.82845        14.59329
   S        3.08470        -5.57126        14.70041
   C        2.37629        -3.21345        13.48496
   C        2.15849        -1.82630        13.27243
   C        1.61161        -1.53223        12.06939
   C        1.35083        -2.65942        11.23114
   S        1.86591        -4.12021        12.07234
   C        0.76129        -2.57784        10.00647
   C        0.41674        -3.60877         9.07361
   C        0.83460        -4.94383         9.20639
   C        0.43967        -5.87409         8.28006
   C       -0.38321        -5.51613         7.19762
   C       -0.78949        -4.19710         7.04109
   C       -0.38305        -3.26277         7.96846
   C       -0.64687        -6.69917         6.40992
   C        0.02372        -7.78742         6.99751
   C        0.76967        -7.34709         8.23536
   C        0.25600        -8.07194         9.49317
   C       -1.24168        -7.89154         9.70864
   C        2.28555        -7.57712         8.09278
   C        2.87551        -6.88666         6.86909
   C       -0.05524        -9.04215         6.44752
   C       -0.82303        -9.24498         5.29053
   C       -1.50049        -8.15363         4.72876
   C       -1.41391        -6.88686         5.26888
   C       -0.94978       -10.53709         4.65773
   C       -0.18325       -11.61750         4.89722
   C       -0.33565       -12.87907         4.24184
   C       -1.32546       -13.32302         3.41369
   C       -1.12826       -14.64206         2.93766
   C       -1.94576       -15.37977         2.05680
   C       -3.13302       -14.79076         1.46854
   C       -3.27662       -13.54354         0.93536
   C       -4.58547       -13.30066         0.46246
   C       -5.44930       -14.34210         0.62882
   S       -4.63370       -15.67280         1.38179
   C       -6.88466       -14.43252         0.25918
  Cl       -5.03530       -11.80264        -0.26193
   C       -1.54323       -16.67611         1.77730
   C       -0.35821       -17.26080         2.28290
   C        0.47238       -16.51718         3.14058
   C        0.04975       -15.22763         3.45838
   S        0.89241       -14.10879         4.48932
   C        1.72312       -17.03466         3.66012
   C        2.25093       -16.85602         4.90569
   C        3.52848       -17.44078         5.04786
   C        3.99729       -18.05871         3.92695
   S        2.83132       -17.92924         2.65253
   C        5.29106       -18.75688         3.71730
  Cl        4.40939       -17.37132         6.52639
   C       -0.18070       -18.59181         1.82149
   C       -1.17159       -19.00722         0.98905
   S       -2.38765       -17.77637         0.71145
   N       -1.31798       -20.23844         0.42952
   C       -2.23512       -20.49805        -0.65791
   C       -1.85635       -19.75607        -1.94520
   S       -2.26527       -20.86630        -3.31796
   C       -1.65446       -22.26243        -2.33713
   C       -2.17218       -22.03249        -0.91313
   N       -1.31746       -22.55743         0.12480
   S       -0.06430       -21.41171         0.38898
   C       -1.10401       -23.90473         0.33035
   C       -1.71863       -24.90698        -0.29857
   N       -1.45709       -26.25820        -0.05155
   C       -2.51942       -27.22968        -0.20740
   C       -2.03705       -28.42286        -1.02919
   S       -3.04490       -29.82949        -0.49245
   C       -2.85069       -29.27895         1.22606
   C       -2.93838       -27.75149         1.21692
   N       -2.02706       -27.16759         2.17007
   S       -0.59492       -26.73952         1.34282
   C       -2.43273       -26.49576         3.30629
   C       -3.58797       -26.64721         3.93901
   H        4.52651        -6.41024        18.04333
   H        4.04542        -7.52405        16.66177
   H        4.18084        -3.79643        17.69563
   H        3.31332        -2.14533        15.92307
   H        2.40909        -1.09431        14.01937
   H        1.37345        -0.53600        11.73882
   H        0.48241        -1.57490         9.70279
   H        1.47430        -5.23367        10.02361
   H       -1.41260        -3.90692         6.20804
   H       -0.69522        -2.23377         7.85767
   H        0.79493        -7.68673        10.36119
   H        0.48346        -9.13620         9.40177
   H       -1.48746        -6.83831         9.82442
   H       -1.55615        -8.41860        10.60646
   H       -1.80271        -8.28462         8.86336
   H        2.47180        -8.65123         8.02757
   H        2.77988        -7.20568         8.99274
   H        2.40941        -7.25480         5.95758
   H        3.94466        -7.07758         6.81069
   H        2.72027        -5.81142         6.92357
   H        0.45375        -9.87328         6.91097
   H       -2.09694        -8.31403         3.84156
   H       -1.93812        -6.05964         4.81359
   H       -1.72324       -10.60661         3.90400
   H        0.63390       -11.56384         5.60256
   H       -2.19352       -12.73931         3.17142
   H       -2.47498       -12.83455         0.84121
   H       -7.21407       -13.48773        -0.16606
   H       -7.49251       -14.65881         1.13446
   H       -7.04284       -15.22410        -0.47275
   H        1.74394       -16.35664         5.70994
   H        5.92565       -18.19142         3.03442
   H        5.12984       -19.74368         3.28612
   H        5.80799       -18.86191         4.66805
   H        0.64243       -19.22559         2.09284
   H       -3.23749       -20.20079        -0.33235
   H       -0.78132       -19.56105        -1.96811
   H       -2.39839       -18.82269        -2.06841
   H       -0.56200       -22.25121        -2.34955
   H       -2.01198       -23.18631        -2.78191
   H       -3.16521       -22.47619        -0.79484
   H       -0.38250       -24.10169         1.10991
   H       -2.44210       -24.74914        -1.08291
   H       -3.37785       -26.76368        -0.69746
   H       -0.98916       -28.63349        -0.80826
   H       -2.16468       -28.27580        -2.09794
   H       -1.86723       -29.59378         1.57975
   H       -3.62135       -29.74229         1.83564
   H       -3.95539       -27.42233         1.44544
   H       -1.66524       -25.83882         3.69076
   H       -4.36015       -27.31666         3.60494
   H       -3.78580       -26.09386         4.83711
*
