# ORCA input file
# SCF done       -175.124021610211          0.000613689958
! CAM-B3LYP def2-SVP def2/J RIJCOSX Grid4 TightSCF
%maxcore 5000
%tddft
    Mode sTDDFT
    Ethresh 5.0
    maxcore 5000
end

%pal
  nprocs 6
  end
* xyz 0 1
   C       12.93224        -3.99429         1.28019
   C       12.31762        -4.28276         0.12441
   C       12.82096        -4.10774        -1.20707
   C       11.96860        -4.49620        -2.18266
   C       10.73034        -5.00901        -1.71060
   S       10.68753        -4.97184         0.04123
   C        9.67806        -5.48380        -2.45982
   C        9.55669        -5.53644        -3.86744
   C        8.37294        -6.05388        -4.29802
   C        7.48257        -6.42402        -3.26356
   S        8.23080        -6.13142        -1.70721
   C        6.25356        -7.01620        -3.43690
   C        5.30577        -7.34710        -2.46416
   S        4.30548        -8.73767        -2.78912
   C        3.62643        -8.76660        -1.18800
   C        4.15342        -7.69220        -0.42553
   C        5.02584        -6.84319        -1.17199
   C        5.43224        -5.60274        -0.60855
   C        5.93956        -4.49080        -1.45548
   O        5.62986        -4.39266        -2.62387
   C        6.76035        -3.42271        -0.76765
   C        5.15988        -5.37290         0.72565
   C        4.47478        -6.30773         1.50580
   C        3.94265        -7.43646         0.93734
   C        2.70988        -9.78189        -0.90011
   C        1.84217        -9.87614         0.16240
   C        0.99716       -10.96782         0.39136
   C        0.04714       -11.05722         1.41222
   C       -0.57681       -12.31337         1.36019
   C        0.04826       -13.00660         0.23458
   C        0.96805       -12.22362        -0.35260
   F       -0.27785       -14.25272        -0.14749
   C       -1.57606       -12.82970         2.18401
   C       -2.13163       -14.11732         2.17437
   C       -3.10063       -14.21267         3.17717
   C       -3.17691       -12.91832         3.84683
   C       -2.26749       -12.12093         3.26176
   F       -2.01624       -10.84301         3.58688
   C       -3.81203       -15.37197         3.48955
   C       -4.83172       -15.47360         4.40619
   C       -5.47784       -16.66785         4.73076
   S       -7.12802       -16.60948         5.27870
   C       -7.37158       -18.32446         5.05984
   C       -6.13866       -18.94697         4.71992
   C       -5.06646       -18.01666         4.57837
   C       -3.74668       -18.49041         4.39287
   C       -2.54438       -17.63661         4.62144
   O       -2.47024       -16.90084         5.57653
   C       -1.39463       -17.83321         3.66174
   C       -3.54973       -19.84625         4.21256
   C       -4.60906       -20.75014         4.30476
   C       -5.87904       -20.31909         4.59771
   C       -8.66795       -18.81217         5.20482
   C       -9.15108       -20.04668         4.82306
   C      -10.46152       -20.46111         5.02036
   C      -10.92982       -21.70630         4.64092
   C      -12.22979       -22.22499         4.80425
   C      -12.38696       -23.50473         4.35337
   C      -11.21303       -24.06613         3.80789
   S       -9.90246       -22.90814         3.87937
   C      -11.03063       -25.32981         3.28348
   C      -11.98997       -26.36958         3.17378
   C      -11.51594       -27.51041         2.61936
   C      -10.13413       -27.45566         2.24432
   S       -9.48673       -25.85821         2.64870
   C       -9.39345       -28.41954         1.67692
   H       13.92449        -3.57894         1.28495
   H       12.46103        -4.16748         2.23018
   H       13.80172        -3.69843        -1.37279
   H       12.18396        -4.43771        -3.23490
   H       10.33651        -5.18656        -4.51954
   H        8.09698        -6.16180        -5.33208
   H        6.03409        -7.35351        -4.44315
   H        7.34399        -2.89323        -1.51723
   H        7.41842        -3.84109        -0.01198
   H        6.08623        -2.70457        -0.30226
   H        5.45411        -4.44125         1.18141
   H        4.32514        -6.11095         2.55655
   H        3.37951        -8.12922         1.53893
   H        2.65358       -10.55847        -1.65207
   H        1.75416        -9.05756         0.86135
   H       -0.16546       -10.28698         2.12780
   H        1.57752       -12.47399        -1.19808
   H       -1.85470       -14.91161         1.50891
   H       -3.82444       -12.67015         4.66403
   H       -3.54942       -16.25526         2.92087
   H       -5.23380       -14.57039         4.84369
   H       -0.85822       -16.89349         3.55314
   H       -1.72917       -18.19195         2.69264
   H       -0.70266       -18.55808         4.08899
   H       -2.55005       -20.22663         4.06968
   H       -4.41286       -21.80615         4.19736
   H       -6.65644       -21.04280         4.77089
   H       -9.38226       -18.11217         5.62298
   H       -8.50417       -20.73914         4.30645
   H      -11.16055       -19.79409         5.50760
   H      -13.01426       -21.63993         5.25172
   H      -13.31071       -24.05279         4.40189
   H      -13.00202       -26.23605         3.51273
   H      -12.09418       -28.40257         2.45737
   H       -9.82335       -29.37807         1.44639
   H       -8.35773       -28.26717         1.43518
*
