# ORCA input file
# SCF done       -216.326817723085          0.000486767112
! CAM-B3LYP def2-SVP def2/J RIJCOSX Grid4 TightSCF
%maxcore 5000
%tddft
    Mode sTDDFT
    Ethresh 5.0
    maxcore 5000
end

%pal
  nprocs 6
  end
* xyz 0 1
   C       20.95533        -2.99695         1.37294
   C       22.21741        -3.25273         0.91319
   F       22.94630        -4.22537         1.48690
   C       22.79149        -2.53511        -0.14543
   C       22.06575        -1.54226        -0.74227
   C       20.75882        -1.23684        -0.30939
   C       20.19338        -1.97738         0.77034
   C       18.88706        -1.68504         1.22665
   C       18.17261        -0.69000         0.61717
   C       18.73594         0.03764        -0.47219
   C       19.99820        -0.21842        -0.92587
   C       17.75180         1.01689        -0.96949
   O       17.89115         1.84897        -1.83432
   C       16.49753         0.71509        -0.21660
   C       16.84277        -0.15714         0.88735
   C       16.17755        -0.23187         2.08160
   C       15.04005         0.55037         2.36340
   N       14.14612         1.22081         2.62625
   C       16.61780        -1.00412         3.17569
   N       16.93924        -1.62497         4.08538
   C       15.30468         1.15211        -0.69232
   C       14.00010         0.65396        -0.42936
   C       12.82577         1.31085        -0.70389
   C       11.67067         0.54478        -0.45772
   C       10.29823         0.89152        -0.56552
   C        9.39316        -0.18047        -0.38515
   C        9.87998        -1.40821         0.12831
   N       11.14702        -1.68841         0.36116
   C       12.00539        -0.75303         0.01592
   S       13.71483        -0.98312         0.15073
   S        8.62215        -2.57685         0.41349
   C        7.47623        -1.48823        -0.30924
   C        8.00588        -0.29706        -0.68936
   F        7.31471         0.61427        -1.39148
   F        6.21212        -1.86618        -0.46536
   C        9.92959         2.25366        -0.75967
   C        8.85524         2.91103        -0.22648
   C        8.59626         4.30407        -0.38073
   C        7.51204         4.75516         0.30035
   C        6.84161         3.74703         1.03435
   S        7.66687         2.21740         0.85808
   C        5.66310         3.83200         1.74340
   C        4.81076         4.94650         1.92961
   C        3.66447         4.65346         2.59827
   C        3.54108         3.29362         2.99751
   S        4.97101         2.41210         2.49377
   C        2.46645         2.75638         3.65597
   C        2.31611         1.43402         4.12112
   C        3.19943         0.37636         4.05994
   C        2.77169        -0.76094         4.76431
   C        3.46014        -1.96341         5.04217
   C        2.71731        -2.94817         5.72114
   C        1.40006        -2.64218         6.14806
   N        0.78584        -1.49287         5.96361
   C        1.46053        -0.58731         5.29615
   S        0.85291         1.00650         5.00364
   S        0.65280        -3.94417         7.02667
   C        2.10431        -4.88578         6.84210
   C        3.09099        -4.25198         6.15832
   F        4.28399        -4.80733         5.91145
   F        2.16295        -6.10970         7.34988
   C        4.83892        -2.18460         4.69324
   C        5.87462        -1.30933         4.69170
   C        7.15715        -1.69180         4.02070
   O        7.45118        -2.78570         3.60320
   C        7.92568        -0.43862         3.90518
   C        9.15517        -0.23066         3.34863
   C        9.66890         1.08342         3.28477
   C        8.88589         2.16515         3.78483
   C        9.35766         3.48236         3.62447
   C       10.55703         3.69271         3.00261
   C       11.36813         2.64100         2.55787
   C       10.92571         1.35687         2.71048
   F       10.98480         4.95472         2.80697
   C        7.64819         1.91277         4.41772
   C        7.17994         0.62757         4.48695
   C        5.99264         0.07099         5.12180
   C        5.22972         0.70481         6.06843
   C        4.33340         0.03402         6.92437
   N        3.64308        -0.47901         7.68433
   C        5.29653         2.08738         6.33109
   N        5.25825         3.21842         6.52452
   H       20.54657        -3.56722         2.19231
   H       23.79129        -2.78205        -0.46548
   H       22.48673        -0.97619        -1.55944
   H       18.47642        -2.26390         2.03901
   H       20.41180         0.34772        -1.74698
   H       15.36272         1.92765        -1.45057
   H       12.81646         2.32025        -1.07409
   H       10.64515         2.87327        -1.28275
   H        9.22400         4.91934        -1.00038
   H        7.16838         5.77368         0.29024
   H        5.06316         5.92206         1.55526
   H        2.89178         5.36678         2.82289
   H        1.64805         3.42974         3.87187
   H        4.11113         0.40355         3.49478
   H        5.10025        -3.19077         4.38026
   H        9.73002        -1.05700         2.95789
   H        8.77183         4.31510         3.98220
   H       12.33081         2.85346         2.12305
   H       11.54661         0.53284         2.39625
   H        7.09339         2.74452         4.82168
*
