# ORCA input file
# SCF done       -188.418264371572          0.000462746157
! CAM-B3LYP def2-SVP def2/J RIJCOSX Grid4 TightSCF
%maxcore 5000
%tddft
    Mode sTDDFT
    Ethresh 5.0
    maxcore 5000
end

%pal
  nprocs 6
  end
* xyz 0 1
   C       -9.09501       -12.17704         7.28969
   C       -9.53050       -13.43959         7.00277
   F      -10.12144       -14.18298         7.94986
   C       -9.38402       -13.97431         5.70722
   F       -9.84770       -15.20702         5.45408
   C       -8.79174       -13.24317         4.71642
   C       -8.31833       -11.94319         4.98423
   C       -8.48264       -11.39402         6.28920
   C       -8.04164       -10.08266         6.57321
   C       -7.44170        -9.34291         5.58627
   C       -7.26498        -9.90572         4.29318
   C       -7.68895       -11.16790         3.98606
   C       -6.57826        -8.93765         3.41866
   O       -6.13083        -9.16453         2.31893
   C       -6.42981        -7.69133         4.23719
   C       -6.90640        -7.98504         5.58543
   C       -6.90968        -7.13490         6.65610
   C       -6.41773        -5.81065         6.66095
   N       -6.04441        -4.72886         6.74471
   C       -7.41206        -7.47392         7.93298
   N       -7.79464        -7.68887         8.99279
   C       -5.87827        -6.52497         3.81643
   C       -5.61874        -6.17906         2.44071
   C       -4.66831        -5.28244         2.05412
   C       -4.45016        -5.02372         0.66312
   C       -3.49828        -4.11862         0.22936
   C       -3.28711        -3.85890        -1.13595
   N       -3.11738        -3.64876        -2.25172
   C       -2.68846        -3.40388         1.12882
   N       -2.02622        -2.82587         1.86740
   C       -5.26444        -5.77206        -0.25358
   C       -6.20575        -6.62012         0.22787
   O       -6.42100        -6.78396         1.54835
   C       -7.08706        -7.49534        -0.54222
   C       -7.02997        -7.73940        -1.87384
   C       -7.90449        -8.72109        -2.45088
   C       -7.90228        -9.00842        -3.80318
   C       -8.74184        -9.99901        -4.34028
   N       -9.42643       -10.81630        -4.76776
   C       -7.06367        -8.33672        -4.70823
   N       -6.37643        -7.78398        -5.44353
   C       -8.76022        -9.41498        -1.53734
   C       -8.75826        -9.08988        -0.21829
   O       -7.96572        -8.11398         0.27310
   C       -9.55725        -9.75706         0.78999
   C       -9.70561        -9.28247         2.08671
   F       -9.17458        -8.10664         2.45945
   C      -10.40077        -9.97571         3.08630
   F      -10.43655        -9.39505         4.30606
   C      -11.00416       -11.21221         2.89904
   C      -10.89424       -11.70280         1.57337
   C      -10.20284       -10.99239         0.54703
   N      -10.28444       -11.73370        -0.56685
   N      -10.97066       -12.78425        -0.21517
   N      -11.35758       -12.83454         1.02498
   C      -11.30233       -13.81654        -1.14651
   C      -11.63664       -11.96823         3.92996
   C      -12.06604       -13.27927         3.82006
   C      -12.56020       -13.76683         5.02476
   C      -12.52868       -12.81277         6.05566
   S      -11.88759       -11.31978         5.54616
   C      -13.01834       -13.42413         7.24423
   C      -13.34441       -14.75740         6.96171
   C      -13.06541       -15.02297         5.56242
   C      -13.20162       -16.19842         4.88489
   C      -13.69012       -17.37047         5.49994
   N      -14.09715       -18.32019         5.99645
   C      -12.85886       -16.31257         3.52092
   N      -12.58224       -16.40148         2.41144
   C      -13.81182       -15.44558         8.09574
   C      -13.82977       -14.63642         9.19253
   S      -13.28065       -13.02686         8.88297
   H       -9.22578       -11.77898         8.28360
   H       -8.68771       -13.66786         3.73026
   H       -8.19264        -9.69590         7.56730
   H       -7.54593       -11.56967         2.99367
   H       -5.62265        -5.75762         4.53312
   H       -4.05346        -4.78828         2.78978
   H       -5.11287        -5.64891        -1.31288
   H       -6.32039        -7.22923        -2.50385
   H       -9.40086       -10.20424        -1.89327
   H      -10.49415       -13.91543        -1.86833
   H      -12.21924       -13.55754        -1.67903
   H      -11.45711       -14.74314        -0.59734
   H      -11.99531       -13.82758         2.89954
   H      -14.11456       -16.47649         8.10841
   H      -14.13462       -14.89060        10.18807
*
