# ORCA input file
# SCF done       -276.255309884823          0.000513062561
! CAM-B3LYP def2-SVP def2/J RIJCOSX Grid4 TightSCF
%maxcore 5000
%tddft
    Mode sTDDFT
    Ethresh 5.0
    maxcore 5000
end

%pal
  nprocs 6
  end
* xyz 0 1
   C        1.05081        -1.78286         3.93343
   C        1.96081        -1.06741         3.21706
   C        1.42953         0.17105         2.80781
   C        0.10967         0.35718         3.23547
   S       -0.47107        -0.97474         4.13001
   C       -0.35371         1.62833         2.78488
   C        0.69269         2.23261         2.06964
   C        1.84589         1.34224         2.06016
   C        3.05868         1.56918         1.47626
   C        3.34337         2.75800         0.77369
   N        3.58263         3.72297         0.20144
   C        4.10988         0.63165         1.53768
   N        4.97009        -0.12585         1.58375
   C        0.34359         3.48673         1.58888
   C       -0.95543         3.84711         1.93362
   S       -1.75858         2.59458         2.87050
   C       -1.53417         5.09288         1.57743
   S       -0.55100         6.17737         0.62435
   C       -2.76947         5.67062         1.85742
   C       -3.82655         5.00944         2.60772
   O       -3.73220         3.87195         3.06610
   C       -5.02014         5.81496         2.76260
   C       -6.21065         5.51419         3.38972
   N       -7.04083         6.57586         3.26771
   C       -8.35790         6.67071         3.84471
   C       -8.29625         7.21998         5.26858
   C       -6.41416         7.56587         2.58666
   C       -5.15155         7.13464         2.24603
   C       -4.10654         7.81916         1.50030
   O       -4.23225         8.95836         1.07573
   C       -2.90315         6.99147         1.32301
   C       -1.78213         7.41033         0.62420
   C       -1.56686         8.66246        -0.01273
   C       -0.49202         8.94234        -0.77742
   C       -0.21137        10.20938        -1.40586
   C        0.76546        10.27914        -2.40721
   C        1.07216        11.47258        -3.02122
   C        0.43497        12.65238        -2.63470
   C       -0.52333        12.59248        -1.62088
   C       -0.85555        11.39441        -1.03044
   C        0.80768        13.94759        -3.21879
   C        1.05735        15.01888        -2.23842
   C        0.53039        16.29676        -2.41387
   C        0.76887        17.28720        -1.48051
   C        1.53351        17.01849        -0.35706
   C        2.04806        15.74712        -0.16512
   C        1.80670        14.75259        -1.09395
   C        0.93016        14.14894        -4.55040
   C        0.51246        13.15650        -5.55064
   C        1.30047        12.93450        -6.67924
   C        0.91740        12.01116        -7.63335
   C       -0.26457        11.30492        -7.48360
   C       -1.06500        11.53306        -6.37609
   C       -0.68274        12.45154        -5.41742
   C        1.49359        15.39895        -5.08619
   C        2.70432        15.89709        -4.60879
   C        3.21979        17.07839        -5.09679
   C        2.53968        17.81105        -6.07038
   C        1.34338        17.29406        -6.56710
   C        0.83526        16.10218        -6.09258
   C        3.06616        19.09666        -6.54180
   C        3.73354        19.95072        -5.66338
   C        4.22711        21.16415        -6.09172
   C        4.07736        21.57053        -7.41847
   C        3.39454        20.72593        -8.29468
   C        2.90311        19.51191        -7.86393
   C        4.58672        22.87843        -7.84449
   C        4.43511        23.96359        -6.85992
   C        3.22616        24.14244        -6.18973
   C        3.08317        25.15391        -5.25881
   C        4.14812        25.99185        -4.97132
   C        5.36012        25.80907        -5.61695
   C        5.50457        24.80337        -6.55334
   C        5.18399        23.08899        -9.04411
   C        5.56868        21.99349        -9.95027
   C        6.21998        20.85881        -9.46984
   C        6.59226        19.84796       -10.33488
   C        6.32332        19.95514       -11.68994
   C        5.69027        21.08614       -12.17818
   C        5.32069        22.10319       -11.31790
   C        5.50526        24.43303        -9.53025
   C        6.72481        24.67664       -10.16820
   C        7.03296        25.92896       -10.64442
   C        6.10475        26.97446       -10.56128
   C        4.88196        26.72790        -9.92127
   C        4.59425        25.48679        -9.40777
   C        6.44698        28.26661       -11.08419
   C        5.63210        29.24326       -11.55651
   C        6.14868        30.63571       -11.66461
   O        7.30252        30.98923       -11.59083
   C        4.94867        31.48427       -11.81742
   C        4.85767        32.84613       -11.82805
   C        3.58556        33.44853       -11.95000
   C        2.42836        32.62307       -12.05403
   C        1.16141        33.23079       -12.16522
   C        1.04909        34.59257       -12.17573
   C        2.19433        35.40775       -12.07473
   C        3.43663        34.84914       -11.96455
   F        2.05384        36.74054       -12.08607
   F       -0.15619        35.16816       -12.28154
   C        2.55462        31.21513       -12.04853
   C        3.79868        30.65315       -11.93852
   C        4.23121        29.25731       -11.93069
   C        3.50709        28.20609       -12.42660
   C        4.02657        26.91154       -12.63783
   N        4.39633        25.85354       -12.88453
   C        2.17151        28.31711       -12.86504
   N        1.07894        28.35490       -13.21502
   H        1.17493        -2.75381         4.36963
   H        2.95460        -1.41301         2.99809
   H        0.99036         4.12838         1.01699
   H       -6.50297         4.61564         3.89582
   H       -8.80887         5.67493         3.84755
   H       -8.96508         7.32771         3.21669
   H       -7.69533         6.56952         5.89952
   H       -9.29716         7.28392         5.68573
   H       -7.85162         8.21222         5.27252
   H       -6.89090         8.50229         2.37536
   H       -2.35110         9.38846         0.14479
   H        0.23343         8.15630        -0.95931
   H        1.28156         9.37691        -2.70318
   H        1.82837        11.50686        -3.79185
   H       -1.01470        13.50287        -1.30742
   H       -1.60198        11.37531        -0.25168
   H       -0.07836        16.50757        -3.28071
   H        0.35362        18.27349        -1.62890
   H        1.72222        17.79534         0.36917
   H        2.63915        15.52941         0.71261
   H        2.21189        13.76161        -0.94422
   H        2.22490        13.48263        -6.79583
   H        1.54254        11.84240        -8.49819
   H       -0.56403        10.58417        -8.23005
   H       -1.99430        10.99458        -6.26054
   H       -1.31899        12.63754        -4.56480
   H        3.24475        15.34392        -3.85454
   H        4.17219        17.43167        -4.73004
   H        0.79150        17.84568        -7.31394
   H       -0.09811        15.71963        -6.48152
   H        3.84555        19.66921        -4.62668
   H        4.74592        21.80793        -5.39541
   H        3.23919        21.03364        -9.31796
   H        2.39736        18.86776        -8.56791
   H        2.39432        23.49017        -6.41523
   H        2.13793        25.28809        -4.75340
   H        4.03625        26.78001        -4.24162
   H        6.19797        26.45070        -5.38628
   H        6.45554        24.65301        -7.04356
   H        6.44193        20.77849        -8.41560
   H        7.09781        18.97390        -9.95102
   H        6.61236        19.16185       -12.36337
   H        5.48495        21.17883       -13.23436
   H        4.82734        22.98466       -11.70200
   H        7.43836        23.87149       -10.26698
   H        7.98322        26.10629       -11.12632
   H        4.17198        27.53343        -9.79930
   H        3.64448        25.31423        -8.92470
   H        7.49948        28.53278       -11.04599
   H        5.74408        33.45603       -11.74231
   H        0.27490        32.62151       -12.24726
   H        4.30346        35.48667       -11.88778
   H        1.66181        30.61458       -12.12054
*
