# ORCA input file
# SCF done       -234.957755578704          0.000441570272
! CAM-B3LYP def2-SVP def2/J RIJCOSX Grid4 TightSCF
%maxcore 5000
%tddft
    Mode sTDDFT
    Ethresh 5.0
    maxcore 5000
end

%pal
  nprocs 6
  end
* xyz 0 1
   C       -1.40969         0.62346         4.81306
   C       -0.24161         1.06283         4.25553
   F        0.34786         2.17545         4.71549
   C        0.35669         0.35595         3.19418
   F        1.50297         0.80941         2.66611
   C       -0.22197        -0.78120         2.70386
   C       -1.42600        -1.25831         3.25635
   C       -2.03185        -0.54518         4.33043
   C       -3.24135        -1.00525         4.90188
   C       -3.82787        -2.14207         4.41265
   C       -3.21574        -2.84481         3.33802
   C       -2.04861        -2.42873         2.76730
   C       -4.04284        -4.01720         2.99767
   O       -3.80406        -4.83181         2.12215
   C       -5.18577        -3.99160         3.91281
   C       -5.05318        -2.84702         4.78900
   C       -5.89740        -2.46497         5.80228
   C       -7.07740        -3.13030         6.19201
   N       -8.05018        -3.60730         6.57526
   C       -5.69269        -1.33013         6.61377
   N       -5.58517        -0.42291         7.30965
   C       -6.21775        -4.90245         3.92808
   C       -6.44030        -6.03183         3.13452
   S       -5.42744        -6.64069         1.84755
   C       -6.52119        -7.95684         1.56559
   C       -7.61443        -7.91829         2.42805
   C       -7.56586        -6.85069         3.29567
   C       -6.25338        -8.91257         0.56148
   C       -5.16202        -8.94851        -0.28925
   C       -5.17730       -10.02308        -1.16608
   C       -6.28234       -10.84466        -1.01448
   S       -7.32322       -10.25678         0.25041
   C       -6.58192       -12.01753        -1.74325
   S       -5.50148       -12.58583        -2.98288
   C       -6.52554       -13.95989        -3.31993
   C       -7.64373       -13.94083        -2.49501
   C       -7.67304       -12.86357        -1.62202
   C       -6.12574       -14.87392        -4.31154
   C       -6.78597       -16.01420        -4.68455
   C       -6.27933       -16.86507        -5.67087
   C       -6.84586       -18.04338        -6.09999
   C       -6.30623       -18.90980        -7.07759
   C       -7.05043       -20.02734        -7.30877
   C       -8.22460       -20.10424        -6.52950
   S       -8.35510       -18.70256        -5.49066
   C       -9.16154       -21.12343        -6.54935
   C       -9.09596       -22.30900        -7.31228
   C      -10.15572       -23.14682        -7.13911
   C      -11.13120       -22.67376        -6.23021
   S      -10.61805       -21.11678        -5.58351
   C      -12.30614       -23.24087        -5.79545
   C      -12.91820       -24.41461        -6.27012
   S      -14.21026       -25.12811        -5.32430
   C      -14.39712       -26.43188        -6.46111
   C      -13.51756       -26.28239        -7.52064
   C      -12.70360       -25.16636        -7.41988
   C      -15.32505       -27.47936        -6.26333
   C      -16.26306       -27.63219        -5.25885
   C      -16.99956       -28.80739        -5.36282
   C      -16.64132       -29.58996        -6.44412
   S      -15.36572       -28.83295        -7.35977
   C      -17.15013       -30.85145        -6.83350
   S      -18.45571       -31.61602        -5.98378
   C      -18.40151       -33.00569        -7.04537
   C      -17.38578       -32.85609        -7.97887
   C      -16.69812       -31.65673        -7.86669
   C      -19.29094       -34.07939        -6.82154
   C      -19.53289       -35.12223        -7.66779
   C      -19.16621       -35.18357        -9.02729
   C      -19.14525       -36.29319        -9.82813
   C      -19.17840       -36.15507       -11.30248
   O      -19.02095       -35.13833       -11.94254
   C      -19.48305       -37.50914       -11.81416
   C      -19.70705       -37.91186       -13.09829
   C      -20.00635       -39.27003       -13.35081
   C      -20.07244       -40.18518       -12.26078
   C      -20.37543       -41.53701       -12.51872
   C      -20.59836       -41.96108       -13.79869
   C      -20.53100       -41.05571       -14.87581
   C      -20.24169       -39.73776       -14.65808
   F      -20.75424       -41.49910       -16.12154
   F      -20.88420       -43.24798       -14.04184
   C      -19.82889       -39.73975       -10.94079
   C      -19.53230       -38.42163       -10.72140
   C      -19.19459       -37.69574        -9.49789
   C      -18.79560       -38.26969        -8.31581
   C      -18.16383       -37.55638        -7.27687
   N      -17.58344       -37.02837        -6.43855
   C      -18.85659       -39.65287        -8.05571
   N      -18.91033       -40.76792        -7.78667
   H       -1.85436         1.17663         5.62556
   H        0.24847        -1.31125         1.89055
   H       -3.67154        -0.44133         5.71327
   H       -1.60701        -2.98355         1.95349
   H       -6.99760        -4.74130         4.66248
   H       -8.40024        -8.65298         2.40362
   H       -8.31326        -6.64246         4.04128
   H       -4.38767        -8.20308        -0.25346
   H       -4.41533       -10.21966        -1.89937
   H       -8.40842       -14.69487        -2.53663
   H       -8.45758       -12.68194        -0.90821
   H       -5.19431       -14.64300        -4.81336
   H       -7.71847       -16.28553        -4.20947
   H       -5.34480       -16.58540        -6.14143
   H       -5.38123       -18.68158        -7.57696
   H       -6.78584       -20.79020        -8.01810
   H       -8.26470       -22.52420        -7.95908
   H      -10.22754       -24.10892        -7.60899
   H      -12.81557       -22.74043        -4.98246
   H      -13.48983       -26.97827        -8.34101
   H      -12.00885       -24.88333        -8.18729
   H      -16.39358       -26.90125        -4.48072
   H      -17.77188       -29.10089        -4.67396
   H      -17.11839       -33.62421        -8.68029
   H      -15.87803       -31.36767        -8.50019
   H      -19.78708       -34.08181        -5.86008
   H      -20.11166       -35.94977        -7.27788
   H      -18.99786       -34.24372        -9.54270
   H      -19.65566       -37.20483       -13.91230
   H      -20.42775       -42.24406       -11.70557
   H      -20.19393       -39.05704       -15.49361
   H      -19.88887       -40.45318       -10.13438
*
