# ORCA input file
# SCF done       -174.543404738975          0.000629964408
! CAM-B3LYP def2-SVP def2/J RIJCOSX Grid4 TightSCF
%maxcore 5000
%tddft
    Mode sTDDFT
    Ethresh 5.0
    maxcore 5000
end

%pal
  nprocs 6
  end
* xyz 0 1
   C       -5.42406        18.50405        -0.95571
   C       -4.10947        18.29485        -0.67149
   C       -3.69490        17.01100        -1.07665
   C       -4.73140        16.27682        -1.66654
   S       -6.19539        17.15302        -1.72147
   C       -4.22746        15.00180        -2.04622
   C       -2.87153        14.93553        -1.69111
   C       -2.49223        16.20116        -1.07092
   C       -1.26126        16.54750        -0.59496
   C       -0.15428        15.67482        -0.64762
   N        0.75605        14.97851        -0.68481
   C       -1.00786        17.80927        -0.01723
   N       -0.79513        18.83417         0.45168
   C       -2.27987        13.71925        -2.02586
   C       -3.18203        12.86378        -2.63738
   S       -4.77755        13.56964        -2.79489
   C       -2.90213        11.56360        -3.11585
   S       -4.14258        10.58688        -3.95061
   C       -2.95128         9.36789        -4.13256
   C       -1.74056         9.77791        -3.55927
   N       -1.73739        10.98528        -3.00872
   C       -0.69184         8.72472        -3.71924
   C       -1.45495         7.67073        -4.46560
   C       -2.77379         8.08313        -4.68727
   S       -3.68272         6.92083        -5.55966
   C       -2.28349         5.86448        -5.63923
   C       -1.18321         6.42038        -5.00053
   C       -2.38820         4.64210        -6.35064
   C       -1.36822         3.76377        -6.49949
   C       -1.42758         2.53486        -7.22603
   S       -3.06681         1.87738        -7.40046
   C       -2.91554         0.87748        -8.83832
   C       -3.92400         0.67485        -9.72708
   S       -3.47055        -0.42092       -10.97273
   C       -1.89492        -0.58941       -10.30264
   C       -1.74447         0.14742        -9.17038
   S       -0.27978         0.18565        -8.20238
   C       -0.29585         1.88534        -7.64045
   C        1.01495         2.44603        -7.63480
   C        1.32567         3.76446        -7.72309
   C        2.64969         4.25034        -7.63760
   S        2.92648         6.02023        -7.69563
   C        4.59367         5.69414        -7.47956
   C        4.81297         4.31207        -7.38929
   N        3.73498         3.54460        -7.47323
   C        6.26729         4.01720        -7.20105
   C        6.84357         5.40277        -7.18618
   C        5.83219         6.35548        -7.35103
   S        6.43554         7.95956        -7.32483
   C        8.06795         7.35687        -7.09211
   C        8.10165         5.97018        -7.04375
   C        9.12399         8.29405        -6.97192
   C       10.43470         7.98276        -6.82621
   C       11.47721         8.93265        -6.68717
   C       12.82837         8.65723        -6.55889
   C       13.59389         9.81594        -6.42891
   C       12.82251        10.98518        -6.45589
   S       11.15670        10.66250        -6.64640
   C       13.69218        12.10220        -6.30661
   C       15.00659        11.63396        -6.18750
   C       14.99536        10.18631        -6.26288
   C       16.06501         9.34106        -6.19748
   C       17.38563         9.80941        -6.03775
   N       18.46188        10.18319        -5.90584
   C       15.92282         7.94122        -6.28846
   N       15.81220         6.80208        -6.36391
   C       15.93756        12.67928        -6.02981
   C       15.32409        13.89412        -6.03196
   S       13.60267        13.80476        -6.22583
   H       -6.00676        19.38229        -0.76243
   H       -3.47770        19.02388        -0.19802
   H       -1.25738        13.43925        -1.85403
   H       -0.32593         8.36919        -2.75441
   H        0.16671         9.09235        -4.28401
   H       -0.22787         5.93181        -4.94439
   H       -3.33882         4.44584        -6.82786
   H       -0.42070         3.97227        -6.02429
   H       -4.90957         1.09284        -9.70536
   H       -1.17569        -1.23461       -10.76387
   H        1.83347         1.73882        -7.60823
   H        0.56026         4.51006        -7.88229
   H        6.66486         3.41078        -8.01676
   H        6.45315         3.48146        -6.26843
   H        9.00868         5.41167        -6.90385
   H        8.83628         9.33769        -7.00068
   H       10.74959         6.94895        -6.80939
   H       13.21955         7.65610        -6.56149
   H       16.99825        12.54600        -5.91994
   H       15.77663        14.85998        -5.92977
*
