# ORCA input file
# SCF done       -168.185906678633          0.000533778869
! CAM-B3LYP def2-SVP def2/J RIJCOSX Grid4 TightSCF
%maxcore 5000
%tddft
    Mode sTDDFT
    Ethresh 5.0
    maxcore 5000
end

%pal
  nprocs 6
  end
* xyz 0 1
   C        0.43461         1.87213         0.85447
   C       -0.90432         1.59857         0.82070
   C       -1.57490         0.84088         1.80555
   N       -2.17640         0.23047         2.56789
   C       -1.76406         1.98743        -0.22570
   N       -2.50259         2.26782        -1.05920
   C        1.38540         1.34516         1.81948
   C        2.69615         1.42297         1.26064
   C        3.79029         0.96906         1.94100
   C        3.61999         0.42598         3.23403
   C        2.31538         0.37521         3.80811
   C        1.19875         0.84092         3.07871
   C        2.16505        -0.14895         5.10830
   C        3.24815        -0.60824         5.80690
   C        4.53055        -0.56411         5.23895
   C        4.71265        -0.05807         3.98050
   C        2.63064         2.06944        -0.05870
   O        3.51457         2.25307        -0.85861
   C        1.20994         2.54044        -0.18098
   C        0.90223         3.53005        -1.04196
   C       -0.29604         4.33059        -1.03521
   C       -0.90816         4.80807        -2.18036
   C       -0.48091         4.59804        -3.49252
   N       -0.11314         4.43901        -4.56779
   S       -2.36339         5.68360        -1.83926
   C       -2.14413         5.47076        -0.13336
   C       -0.99105         4.74320         0.13893
   C       -0.46797         4.53350         1.42400
   N        0.01292         4.38074         2.45543
   C       -3.10082         5.96174         0.79531
   C       -3.22167         5.64450         2.13666
   C       -4.31517         6.28013         2.72256
   C       -5.02687         7.08952         1.82174
   S       -4.36065         7.06360         0.25515
   C       -6.11577         7.68507         2.51252
   C       -6.09350         7.24566         3.84481
   C       -4.97156         6.33671         4.02107
   C       -4.62869         5.65291         5.14833
   C       -3.52082         4.77777         5.19609
   N       -2.62815         4.06082         5.24623
   C       -5.37800         5.74434         6.34226
   N       -5.99183         5.79398         7.30876
   C       -7.13145         7.78659         4.60794
   C       -7.94110         8.61523         3.85954
   S       -7.41512         8.73908         2.19134
   C       -9.08240         9.35459         4.33142
   C       -9.20379         9.79987         5.63832
   C       -8.26452         9.70298         6.66384
   N       -7.49160         9.65652         7.51230
   S      -10.69556        10.64726         5.91265
   C      -11.18274        10.42533         4.26064
   C      -10.21665         9.71531         3.54652
   C      -10.35171         9.30300         2.21337
   N      -10.44005         8.92964         1.12975
   C      -12.43373        10.95204         3.82309
   C      -12.82935        11.00064         2.50941
   C      -14.04502        11.51642         2.06264
   C      -15.02447        12.08719         3.00030
   C      -14.84326        12.15584         4.33563
   S      -13.44357        11.57440         5.13635
   C      -16.10609        12.51361         2.18797
   C      -15.83163        12.23625         0.84193
   C      -16.90548        12.62555         0.00643
   C      -17.92366        13.17670         0.71514
   S      -17.63911        13.24846         2.42172
   C      -14.53853        11.61690         0.75352
   C      -13.84564        11.16231        -0.41820
   C      -14.18806        11.41687        -1.68173
   H        4.77460         1.02895         1.50084
   H        0.22366         0.81130         3.53903
   H        1.17573        -0.18157         5.53972
   H        3.12326        -1.00825         6.80189
   H        5.37394        -0.93102         5.80452
   H        5.69803        -0.01949         3.53968
   H        1.64846         3.77534        -1.79052
   H       -2.55449         4.97695         2.64975
   H       -7.30168         7.57600         5.64786
   H      -12.14037        10.61965         1.77164
   H      -15.57416        12.58275         5.00429
   H      -16.94465        12.50213        -1.05970
   H      -18.85322        13.55699         0.33867
   H      -12.96136        10.56695        -0.23016
   H      -15.03906        12.02022        -1.94048
   H      -13.60780        11.03170        -2.50188
*
