# ORCA input file
# SCF done       -185.080827493268          0.000714419387
! CAM-B3LYP def2-SVP def2/J RIJCOSX Grid4 TightSCF
%maxcore 5000
%tddft
    Mode sTDDFT
    Ethresh 5.0
    maxcore 5000
end

%pal
  nprocs 6
  end
* xyz 0 1
   C       -5.35437         0.80488        -3.06725
   C       -5.34900         1.20192        -1.74977
   C       -6.37384         0.91022        -0.83205
   N       -7.19988         0.74482        -0.05032
   C       -4.28297         1.90120        -1.15878
   N       -3.41998         2.46119        -0.64717
   C       -6.26804        -0.18115        -3.64146
   C       -5.72159        -0.63534        -4.87650
   C       -6.33441        -1.59864        -5.62277
   C       -7.54966        -2.15756        -5.16379
   C       -8.10805        -1.69923        -3.93676
   C       -7.44598        -0.70195        -3.18164
   C       -9.31929        -2.26384        -3.48998
   C       -9.94894        -3.23787        -4.21658
   C       -9.39804        -3.68899        -5.42457
   C       -8.22397        -3.15964        -5.88809
   C       -4.46877         0.09532        -5.14609
   O       -3.70939        -0.05034        -6.07952
   C       -4.34844         1.09247        -4.04938
   C       -3.40297         2.07896        -4.17556
   C       -3.27153         3.32735        -3.55543
   C       -4.21200         4.13381        -2.88571
   O       -5.47815         3.69519        -2.78173
   C       -6.39867         4.40938        -1.97663
   C       -3.67438         5.35642        -2.44978
   O       -4.41561         6.35919        -1.86947
   C       -4.65914         7.46526        -2.72059
   C       -2.30721         5.49389        -2.72190
   S       -1.74013         4.15164        -3.66838
   C       -1.38272         6.47139        -2.32322
   C       -1.47343         7.38285        -1.29441
   C       -0.41979         8.26101        -0.93069
   C       -0.66505         9.00172         0.18516
   C       -1.93105         8.75312         0.75609
   S       -2.80549         7.55819        -0.17395
   C       -2.47297         9.33795         1.88992
   C       -1.84545        10.23091         2.78447
   C       -2.62919        10.61603         3.83289
   C       -3.92764        10.05871         3.81304
   S       -4.10563         9.01371         2.41275
   C       -4.99302        10.22542         4.67247
   C       -5.03226        10.95752         5.85997
   C       -6.21154        11.10839         6.62920
   O       -7.34048        10.52772         6.17287
   C       -8.54178        10.68343         6.90074
   C       -6.00090        11.86026         7.78257
   O       -6.96592        12.13857         8.70859
   C       -7.32573        13.50659         8.87995
   C       -4.65029        12.25931         7.95571
   S       -3.68125        11.76181         6.60028
   C       -4.20237        12.88114         9.12139
   C       -2.93190        13.27370         9.48598
   C       -2.56487        13.85688        10.75580
   C       -3.40677        14.27786        11.75857
   C       -2.96719        14.84356        12.97217
   N       -2.68201        15.30882        13.98303
   C       -4.81330        14.25068        11.72000
   N       -5.96192        14.29029        11.76444
   C       -1.10862        13.97379        10.78262
   C       -0.59909        13.53741         9.52625
   C       -1.72264        13.11164         8.67676
   O       -1.64575        12.70869         7.52585
   C        0.73618        13.53444         9.24810
   C        1.64615        13.97103        10.23823
   C        1.14638        14.40494        11.49888
   C       -0.24561        14.40086        11.75486
   C        2.06170        14.83490        12.47996
   C        3.40753        14.83718        12.22993
   C        3.89857        14.40956        10.98821
   C        3.03607        13.98568        10.01326
   H       -5.89724        -1.93545        -6.55108
   H       -7.89390        -0.37237        -2.25712
   H       -9.73863        -1.91508        -2.55746
   H      -10.87495        -3.66656        -3.86321
   H       -9.90747        -4.45819        -5.98579
   H       -7.79433        -3.50352        -6.81778
   H       -2.65221         1.86727        -4.93328
   H       -7.25845         3.74911        -1.86532
   H       -6.71421         5.33659        -2.45988
   H       -5.97499         4.63528        -0.99663
   H       -5.21583         8.18293        -2.12181
   H       -5.25329         7.16781        -3.59150
   H       -3.72744         7.92177        -3.06638
   H       -0.42825         6.43548        -2.83382
   H        0.48907         8.30645        -1.50427
   H        0.02253         9.71657         0.59951
   H       -0.83169        10.55879         2.64199
   H       -2.30551        11.28617         4.60775
   H       -5.91851         9.72711         4.41407
   H       -8.42722        10.36346         7.93766
   H       -9.26845        10.05048         6.39358
   H       -8.88682        11.72060         6.87828
   H       -8.28637        13.68728         8.38617
   H       -6.57742        14.17983         8.45924
   H       -7.42479        13.69727         9.94877
   H       -4.97850        13.01746         9.86390
   H        1.09631        13.19827         8.28703
   H       -0.58983        14.73293        12.72119
   H        1.67867        15.16351        13.43500
   H        4.10062        15.16829        12.98882
   H        4.96316        14.41704        10.80729
   H        3.40858        13.65464         9.05470
*
