# ORCA input file
# SCF done       -214.785617054941          0.000584363492
! CAM-B3LYP def2-SVP def2/J RIJCOSX Grid4 TightSCF
%maxcore 5000
%tddft
    Mode sTDDFT
    Ethresh 5.0
    maxcore 5000
end

%pal
  nprocs 6
  end
* xyz 0 1
   C        4.14984         7.64098        -2.73604
   C        3.23087         8.22780        -3.56059
   F        3.44970         9.47635        -4.01430
   C        2.05611         7.57715        -3.96051
   C        1.81766         6.30816        -3.51087
   C        2.73219         5.65439        -2.66013
   C        3.92026         6.33443        -2.26322
   C        4.85061         5.70104        -1.40582
   C        4.60079         4.42859        -0.97152
   C        3.41950         3.74664        -1.38383
   C        2.49981         4.33830        -2.19987
   C        3.42209         2.38155        -0.81824
   O        2.55981         1.53641        -0.90986
   C        4.74971         2.23717        -0.16803
   C        5.35074         3.54654        -0.08141
   C        6.25745         3.95646         0.86316
   C        6.71413         3.11541         1.89788
   N        7.05944         2.46656         2.78007
   C        6.74297         5.27405         0.96232
   N        7.17861         6.33095         1.07090
   C        5.22618         0.98854         0.11309
   C        6.55247         0.54382         0.26611
   C        6.93655        -0.72410         0.69407
   C        8.30223        -0.94031         0.65648
   C        8.99073         0.17073         0.16445
   S        7.95023         1.47700        -0.23038
   C       10.39190         0.06960         0.03154
   C       10.99476        -1.13417         0.38592
  Ge        9.60577        -2.36428         1.06073
   C        9.77625        -2.72999         3.00034
   C        9.37941        -3.98531        -0.05913
   C       12.36826        -1.11360         0.17607
   C       12.82820         0.09323        -0.32596
   S       11.52720         1.23387        -0.54084
   C       14.16170         0.43299        -0.67506
   C       15.23699        -0.42690        -0.81118
   C       16.39520         0.24346        -1.20496
   C       16.20476         1.62754        -1.35272
   S       14.59757         2.09974        -1.02366
   C       17.42794         2.20942        -1.77086
   C       18.38645         1.19218        -1.90812
   C       17.77300        -0.07595        -1.54454
   C       18.36389        -1.30510        -1.52306
   C       17.65926        -2.46606        -1.14220
   N       17.08344        -3.40813        -0.83202
   C       19.71747        -1.49653        -1.87154
   N       20.81818        -1.65780        -2.14927
   C       19.62301         1.66524        -2.34903
   C       19.61863         3.03545        -2.53039
   S       18.05628         3.75088        -2.15433
   C       20.68300         3.85710        -2.98081
   C       20.75061         5.23918        -2.97335
   C       21.93516         5.73670        -3.50366
   C       22.77827         4.71904        -3.93984
   S       22.12002         3.14789        -3.67059
   C       23.99308         5.09116        -4.55623
   C       24.30329         6.44864        -4.61495
  Ge       22.79904         7.47440        -3.86489
   C       21.87660         8.53287        -5.26036
   C       23.24124         8.47871        -2.21095
   C       25.49950         6.67982        -5.27536
   C       26.08294         5.53031        -5.78757
   S       25.16149         4.10807        -5.34374
   C       27.25719         5.45724        -6.56971
   C       27.58684         4.51463        -7.49740
   C       29.00231         4.32798        -7.90851
   O       29.93258         5.06287        -7.66275
   C       29.02888         3.03654        -8.62433
   C       30.09951         2.34724        -9.11552
   C       29.88564         1.10594        -9.75632
   C       28.55924         0.59578        -9.86628
   C       28.35426        -0.64472       -10.50089
   C       29.42732        -1.32779       -11.00150
   C       30.73846        -0.84225       -10.90597
   C       30.95564         0.35869       -10.28969
   F       29.23324        -2.51158       -11.61183
   C       27.46757         1.33412        -9.35265
   C       27.69889         2.54027        -8.74991
   C       26.78372         3.52863        -8.18622
   C       25.45615         3.64540        -8.51218
   C       24.66556         4.77230        -8.20703
   N       23.99689         5.69025        -8.03378
   C       24.75111         2.69532        -9.27708
   N       24.12482         1.94757        -9.88301
   H        5.04215         8.17331        -2.44576
   H        1.36750         8.09006        -4.61306
   H        0.91970         5.78610        -3.80556
   H        5.74588         6.23306        -1.12445
   H        1.60624         3.80895        -2.49505
   H        4.47559         0.20316         0.11333
   H        6.21873        -1.44907         1.03687
   H        9.86607        -1.79821         3.55007
   H       10.65483        -3.33813         3.19280
   H        8.90040        -3.26271         3.35773
   H        9.28442        -3.71395        -1.10590
   H        8.48880        -4.52707         0.24396
   H       10.23768        -4.64012         0.05546
   H       13.02005        -1.94228         0.38775
   H       15.16514        -1.48645        -0.65115
   H       20.49275         1.05955        -2.52993
   H       19.95443         5.85215        -2.58661
   H       21.76922         7.93418        -6.15972
   H       22.45614         9.41919        -5.49958
   H       20.89297         8.84156        -4.91975
   H       23.73826         7.83071        -1.49578
   H       22.33631         8.87077        -1.75734
   H       23.89853         9.31049        -2.44474
   H       25.91918         7.65627        -5.44356
   H       28.01053         6.21581        -6.37922
   H       31.09881         2.74480        -9.01979
   H       27.35769        -1.04687       -10.59560
   H       31.54575        -1.42531       -11.32000
   H       31.95695         0.75326       -10.20387
   H       26.47447         0.92275        -9.44145
*
