# ORCA input file
# SCF done       -214.156865911956          0.000434771970
! CAM-B3LYP def2-SVP def2/J RIJCOSX Grid4 TightSCF
%maxcore 5000
%tddft
    Mode sTDDFT
    Ethresh 5.0
    maxcore 5000
end

%pal
  nprocs 6
  end
* xyz 0 1
   C        1.25379        -0.80298        -6.29511
   C        0.22127        -0.16877        -6.92769
   F       -0.27261        -0.68369        -8.06974
   C       -0.35323         1.00964        -6.43305
   C        0.13634         1.54788        -5.27544
   C        1.20059         0.93607        -4.58229
   C        1.76875        -0.26417        -5.09993
   C        2.82858        -0.90381        -4.41520
   C        3.30515        -0.35648        -3.25514
   C        2.74603         0.85396        -2.75290
   C        1.71791         1.48746        -3.38815
   C        3.46177         1.24570        -1.52175
   O        3.23087         2.18799        -0.79839
   C        4.56935         0.26089        -1.38343
   C        4.34225        -0.80411        -2.33099
   C        4.83223        -2.08224        -2.24797
   C        4.56128        -3.09377        -3.18900
   N        4.40076        -3.94865        -3.93907
   C        5.61349        -2.54725        -1.17294
   N        6.22221        -2.98266        -0.30165
   C        5.58715         0.52067        -0.51886
   C        6.89750        -0.03841        -0.45910
   C        7.61215        -0.02454         0.75349
   O        6.95169         0.48315         1.81679
   C        7.12730        -0.08610         3.10491
   C        8.92711        -0.53239         0.83928
   O        9.61802        -0.41091         2.03108
   C       10.19458         0.87149         2.21594
   C        9.57695        -1.15440        -0.23088
   C        8.88176        -1.15482        -1.47311
   C        7.56816        -0.58143        -1.58211
   N        7.10482        -0.63280        -2.82908
   S        8.19837        -1.35089        -3.76700
   N        9.31671        -1.61711        -2.64104
   C       10.85820        -1.76093        -0.07954
   C       11.61514        -2.35528        -1.07632
   C       12.78948        -2.90391        -0.57344
   C       12.93699        -2.73497         0.82714
   S       11.61136        -1.87306         1.50777
   C       14.13712        -3.34679         1.17816
   C       14.69149        -3.86786        -0.01688
   N       13.85893        -3.59993        -1.07240
   C       14.09787        -3.92942        -2.44928
   C       15.90269        -4.52509         0.17432
   C       16.28537        -4.52293         1.50630
   S       15.14444        -3.66793         2.53931
   C       17.44105        -5.12188         2.09987
   C       18.34071        -5.95596         1.42919
   O       18.14393        -6.21316         0.09833
   C       17.95596        -7.57112        -0.26800
   C       19.49584        -6.48839         2.06756
   O       20.33313        -7.16780         1.24367
   C       21.73767        -7.00580         1.37303
   C       19.75982        -6.30494         3.43075
   C       18.85848        -5.46247         4.13121
   C       17.72790        -4.87908         3.47209
   N       16.99138        -4.15089         4.30140
   S       17.63765        -4.20013         5.77251
   N       18.89106        -5.15368         5.42527
   C       20.77950        -7.04006         4.11490
   C       21.42317        -6.74766         5.27564
   C       22.06398        -7.84344         6.05267
   O       22.29566        -8.96687         5.66545
   C       22.30544        -7.27472         7.39324
   C       22.75897        -7.89318         8.52217
   C       22.88444        -7.14562         9.71507
   C       22.53355        -5.76394         9.71406
   C       22.65588        -5.02738        10.90835
   C       23.10899        -5.64994        12.03792
   C       23.45969        -7.00653        12.05922
   C       23.34605        -7.73674        10.90886
   F       23.22738        -4.94703        13.17963
   C       22.07391        -5.14685         8.52718
   C       21.96508        -5.89060         7.38377
   C       21.55146        -5.52508         6.03458
   C       21.50493        -4.25394         5.52385
   C       21.36413        -4.00532         4.14620
   N       21.30318        -3.79481         3.01864
   C       21.65703        -3.08509         6.29280
   N       21.74924        -2.10257         6.87968
   H        1.66900        -1.71128        -6.70313
   H       -1.16685         1.46517        -6.97490
   H       -0.28945         2.45547        -4.87456
   H        3.24386        -1.80831        -4.83074
   H        1.30215         2.39901        -2.98545
   H        5.38820         1.30955         0.19957
   H        7.34732        -1.15207         3.04041
   H        6.17485         0.06227         3.61483
   H        7.91733         0.41434         3.66820
   H        9.43389         1.65791         2.20543
   H       10.93567         1.08420         1.43896
   H       10.68685         0.84185         3.18572
   H       11.29239        -2.37190        -2.09988
   H       14.59669        -4.89640        -2.51202
   H       14.72867        -3.17653        -2.93166
   H       13.14676        -3.98290        -2.97654
   H       16.49819        -4.96853        -0.59920
   H       18.80910        -8.19219         0.00538
   H       17.84039        -7.56770        -1.35035
   H       17.04775        -7.96991         0.19659
   H       21.98464        -6.14183         1.99070
   H       22.12052        -6.84745         0.36274
   H       22.19541        -7.90558         1.78864
   H       20.97890        -8.03460         3.72795
   H       23.01815        -8.94133         8.50817
   H       22.39734        -3.98019        10.92809
   H       23.81064        -7.44387        12.98043
   H       23.61003        -8.78362        10.90072
   H       21.80793        -4.10187         8.55306
*
