# ORCA input file
# SCF done       -180.425639973377          0.000691692534
! CAM-B3LYP def2-SVP def2/J RIJCOSX Grid4 TightSCF
%maxcore 5000
%tddft
    Mode sTDDFT
    Ethresh 5.0
    maxcore 5000
end

%pal
  nprocs 6
  end
* xyz 0 1
   C        0.26923        -1.45251        -3.59232
   C       -0.32641        -0.65196        -4.51727
   C       -0.57413         0.63492        -3.99997
   C       -0.14887         0.76829        -2.67284
   S        0.54620        -0.66905        -2.06906
   C       -0.43535         2.09203        -2.23444
   C       -1.04002         2.78810        -3.28719
   C       -1.14840         1.89295        -4.43504
   C       -1.67994         2.18658        -5.65683
   C       -2.21186         3.45673        -5.96262
   N       -2.64751         4.48583        -6.21991
   C       -1.73289         1.23882        -6.70005
   N       -1.78129         0.47056        -7.55016
   C       -1.36115         4.10640        -2.95847
   C       -1.00429         4.41825        -1.66053
   S       -0.26004         3.05704        -0.83404
   C       -1.17375         5.65823        -0.99275
   C       -0.81659         5.97346         0.30200
   C       -1.13072         7.29886         0.61196
   C       -1.73195         7.99934        -0.45770
   S       -1.91171         7.00529        -1.85356
   C       -1.97408         9.29353        -0.00261
   C       -1.51363         9.34806         1.33229
   N       -1.01531         8.12550         1.69865
   C       -0.41681         7.79060         2.96021
   C       -1.68011        10.60119         1.92707
   C       -2.26427        11.50011         1.05841
   S       -2.62289        10.80377        -0.51890
   C       -2.57245        12.86315         1.29614
   C       -3.15382        13.75654         0.41735
   C       -3.29260        15.02782         0.97527
   C       -2.81415        15.10582         2.29273
   S       -2.19627        13.60926         2.84543
   C       -2.98019        16.43447         2.75693
   C       -3.56327        17.19774         1.73315
   C       -3.78638        16.33801         0.58138
   C       -4.34054        16.68663        -0.61471
   C       -4.78902        17.99715        -0.88323
   N       -5.15720        19.05943        -1.10861
   C       -4.50595        15.76056        -1.66620
   N       -4.64529        15.01349        -2.52468
   C       -3.74732        18.53527         2.08521
   C       -3.31044        18.80042         3.36863
   S       -2.66608        17.36494         4.15784
   C       -3.31544        20.04976         4.03833
   C       -2.89522        20.32216         5.32409
   C       -3.02123        21.68005         5.62619
   C       -3.53946        22.44970         4.56109
   S       -3.88302        21.47926         3.17944
   C       -3.58361        23.76901         5.00618
   C       -3.09344        23.76830         6.33200
   N       -2.75816        22.49168         6.69840
   C       -2.21521        22.06450         7.95738
   C       -3.06345        25.03903         6.91216
   C       -3.52045        26.00548         6.04032
   S       -4.00764        25.35382         4.47940
   C       -3.61464        27.40233         6.26906
   C       -4.02083        28.37522         5.37598
   C       -3.97412        29.65288         5.93685
   C       -3.53386        29.65300         7.26521
   S       -3.17218        28.08018         7.82944
   C       -3.52082        30.99588         7.73748
   C       -3.95088        31.83727         6.70453
   C       -4.24868        31.02983         5.53786
   C       -4.68504        31.45895         4.31848
   C       -4.91338        32.82268         4.04011
   N       -5.09786        33.93015         3.80612
   C       -4.93392        30.57107         3.25104
   N       -5.13953        29.85749         2.37735
   C       -3.96710        33.19318         7.08697
   C       -3.55823        33.35047         8.37511
   S       -3.14197        31.86000         9.15995
   H        0.57239        -2.47422        -3.70274
   H       -0.57222        -0.97112        -5.51354
   H       -1.82941         4.81643        -3.61601
   H       -0.35078         5.26686         0.96512
   H       -0.84717         8.41497         3.74175
   H        0.66601         7.94716         2.93878
   H       -0.61582         6.74458         3.19125
   H       -1.39398        10.86467         2.92944
   H       -3.45098        13.47815        -0.57762
   H       -4.17198        19.29254         1.45118
   H       -2.51852        19.56495         5.98784
   H       -2.12317        22.92430         8.61672
   H       -1.22824        21.61663         7.81673
   H       -2.87068        21.32590         8.42514
   H       -2.72670        25.27018         7.90688
   H       -4.32816        28.14624         4.37154
   H       -4.26260        34.00720         6.45065
   H       -3.47028        34.26170         8.93179
*
