# ORCA input file
# SCF done       -151.630781572193          0.000453654368
! CAM-B3LYP def2-SVP def2/J RIJCOSX Grid4 TightSCF
%maxcore 5000
%tddft
    Mode sTDDFT
    Ethresh 5.0
    maxcore 5000
end

%pal
  nprocs 6
  end
* xyz 0 1
   C        4.10377         9.54452         6.32131
   C        3.40823         8.45573         6.75180
   C        2.56104         7.95877         5.74267
   C        2.64436         8.70021         4.56113
   S        3.75004         9.99378         4.68572
   C        1.75910         8.12883         3.59760
   C        1.12247         7.02606         4.18576
   C        1.60309         6.88144         5.55185
   C        1.23451         5.93554         6.46335
   C        0.28935         4.92887         6.17409
   N       -0.47681         4.10303         5.96013
   C        1.77514         5.89658         7.76554
   N        2.21033         5.85838         8.82602
   C        0.22998         6.39213         3.31358
   C        0.20120         7.01505         2.08860
   S        1.26933         8.39092         1.98647
   C       -0.57074         6.68292         0.91893
   N       -1.38805         5.63041         0.98083
   C       -2.07388         5.36108        -0.11761
   C       -1.96404         6.11404        -1.27248
   C       -1.07944         7.20419        -1.24295
   N       -0.39018         7.47142        -0.13224
   C       -0.88639         8.05846        -2.38820
   C       -0.04384         9.11155        -2.35663
   C        0.21557        10.01259        -3.42396
   C       -0.29772        10.02892        -4.70605
   C        0.21132        11.09289        -5.45317
   C        1.12463        11.90143        -4.73896
   S        1.34844        11.33020        -3.13268
   C        1.53259        12.91243        -5.61072
   C        0.85408        12.69042        -6.83104
   N        0.05488        11.58232        -6.72328
   C       -0.78020        11.01618        -7.74495
   C        1.15627        13.64133        -7.81122
   C        2.05392        14.56798        -7.33865
   S        2.55301        14.29997        -5.68632
   C        2.60286        15.70376        -8.02859
   N        2.19184        15.94657        -9.27757
   C        2.70881        17.01073        -9.86604
   C        3.62733        17.84107        -9.24641
   C        4.00903        17.49820        -7.94126
   N        3.48360        16.42708        -7.34909
   C        4.97753        18.27413        -7.20006
   C        5.39065        17.89629        -5.97475
   C        6.34815        18.57818        -5.17301
   C        7.00991        19.76878        -5.40912
   C        7.88842        20.09627        -4.37488
   C        7.89703        19.14529        -3.34430
   S        6.82309        17.85799        -3.64165
   C        8.82865        19.56799        -2.35093
   C        9.39767        20.77966        -2.75718
   C        8.82767        21.15845        -4.03769
   C        9.10490        22.27395        -4.77286
   C       10.03324        23.24610        -4.34530
   N       10.78678        24.04003        -4.00309
   C        8.47938        22.53099        -6.01053
   N        7.97341        22.74282        -7.01780
   C       10.33899        21.26899        -1.83107
   C       10.46206        20.43386        -0.76269
   S        9.44176        19.03598        -0.85012
   H        4.81753        10.12638         6.86931
   H        3.50250         8.03839         7.73755
   H       -0.37130         5.52969         3.53440
   H       -2.73411         4.50490        -0.05725
   H       -2.53097         5.87849        -2.15850
   H       -1.45378         7.81181        -3.27365
   H        0.48723         9.29581        -1.43222
   H       -1.00216         9.30409        -5.06964
   H       -0.73585        11.64624        -8.63012
   H       -1.81578        10.95693        -7.40169
   H       -0.44014        10.01069        -8.00691
   H        0.76594        13.68489        -8.81066
   H        2.36679        17.19856       -10.87649
   H        4.03583        18.70639        -9.74207
   H        5.36042        19.16096        -7.68314
   H        4.96733        16.98924        -5.56353
   H        6.85338        20.36411        -6.28938
   H       10.89491        22.18181        -1.94280
   H       11.09963        20.54869         0.09088
*
