# ORCA input file
# SCF done       -153.636550471399          0.000881224148
! CAM-B3LYP def2-SVP def2/J RIJCOSX Grid4 TightSCF
%maxcore 5000
%tddft
    Mode sTDDFT
    Ethresh 5.0
    maxcore 5000
end

%pal
  nprocs 6
  end
* xyz 0 1
   C       -3.58650        -3.59793         0.78345
   C       -3.20876        -2.98870         1.94130
   C       -2.97267        -1.61471         1.74387
   C       -3.18338        -1.22280         0.41752
   S       -3.66533        -2.52544        -0.57492
   C       -2.92180         0.17295         0.30994
   C       -2.54664         0.65611         1.57093
   C       -2.56587        -0.45354         2.51636
   C       -2.26384        -0.41118         3.84542
   C       -1.87444         0.77608         4.50170
   N       -1.55218         1.72853         5.05250
   C       -2.31770        -1.56067         4.66191
   N       -2.35833        -2.49199         5.32954
   C       -2.26457         2.02416         1.56819
   C       -2.42304         2.58107         0.31436
   S       -2.93021         1.39265        -0.87924
   C       -2.21945         3.94326        -0.06951
   C       -2.41394         4.41093        -1.35779
   C       -2.21440         5.74278        -1.73330
   C       -1.76900         6.72137        -0.86284
   C       -1.58020         6.29522         0.47746
   C       -1.80946         4.92504         0.87377
   N       -1.59168         4.85649         2.17191
   O       -1.26297         6.08449         2.56398
   N       -1.24965         6.96337         1.56640
   C       -1.65478         8.10146        -1.26971
   C       -0.76426         9.10114        -0.92480
   O        0.40830         8.98945        -0.24874
   C        1.10120         7.76148        -0.23807
   C       -1.12790        10.36962        -1.47135
   O       -0.49687        11.55155        -1.29164
   C        0.46929        11.69326        -0.26722
   C       -2.26414        10.31076        -2.26934
   S       -2.89130         8.69691        -2.34408
   C       -2.90832        11.34892        -3.01157
   C       -2.46839        12.66050        -3.11140
   C       -3.12619        13.63835        -3.86541
   C       -4.28540        13.40063        -4.58843
   C       -4.77808        12.07242        -4.50309
   C       -4.09923        11.06274        -3.73359
   N       -4.78794         9.94805        -3.86160
   O       -5.82248        10.23216        -4.65040
   N       -5.83469        11.50491        -5.04733
   C       -4.96293        14.37760        -5.38275
   C       -4.57455        15.67748        -5.65181
   C       -5.48567        16.33295        -6.47985
   C       -6.57526        15.52467        -6.83536
   S       -6.47696        13.95907        -6.16488
   C       -7.43913        16.28795        -7.67428
   C       -6.89085        17.56441        -7.84446
   C       -5.64355        17.63878        -7.10626
   C       -4.78856        18.69921        -7.02230
   C       -5.03687        19.92187        -7.67958
   N       -5.22993        20.91702        -8.21576
   C       -3.59467        18.63953        -6.27443
   N       -2.62100        18.59707        -5.66954
   C       -7.68637        18.38762        -8.66436
   C       -8.80101        17.73176        -9.09043
   S       -8.91412        16.10185        -8.51137
   H       -3.82921        -4.63083         0.63352
   H       -3.10718        -3.50208         2.87977
   H       -1.96049         2.60649         2.41872
   H       -2.74023         3.71410        -2.11622
   H       -2.40921         6.02142        -2.75798
   H        0.84273         7.14222        -1.09981
   H        0.89741         7.21430         0.68365
   H        2.16293         8.01173        -0.27295
   H        0.61999        12.76788        -0.16645
   H        1.41259        11.21658        -0.53947
   H        0.11495        11.27920         0.67751
   H       -1.56993        12.94135        -2.58935
   H       -2.69703        14.62790        -3.88055
   H       -3.67257        16.11864        -5.27035
   H       -7.45369        19.40345        -8.92675
   H       -9.58205        18.10576        -9.72159
*
