# ORCA input file
# SCF done       -243.717497275586          0.000578972801
! CAM-B3LYP def2-SVP def2/J RIJCOSX Grid4 TightSCF
%maxcore 5000
%tddft
    Mode sTDDFT
    Ethresh 5.0
    maxcore 5000
end

%pal
  nprocs 6
  end
* xyz 0 1
   C       -4.16282        -2.71611        -4.51521
   C       -3.98481        -2.08041        -5.70552
   C       -3.72708        -0.70799        -5.52042
   C       -3.71838        -0.34364        -4.16988
   S       -4.02242        -1.66947        -3.13981
   C       -3.45577         1.05445        -4.07705
   C       -3.29993         1.56320        -5.37128
   C       -3.46377         0.47177        -6.32401
   C       -3.38657         0.54963        -7.68388
   C       -3.12220         1.76074        -8.35697
   N       -2.90877         2.73990        -8.91446
   C       -3.56651        -0.57772        -8.51224
   N       -3.71179        -1.49008        -9.19158
   C       -3.04563         2.93770        -5.38867
   C       -3.00940         3.47087        -4.11720
   S       -3.28832         2.25837        -2.87780
   C       -2.79397         4.82799        -3.75028
   C       -2.77598         5.36103        -2.49411
   C       -2.55457         6.75890        -2.47170
   C       -2.52555         7.61818        -1.35529
   C       -2.61706         7.14228         0.00830
   C       -3.22524         7.75221         1.06951
   C       -3.04982         7.04787         2.27755
   C       -2.30735         5.90821         2.16743
   S       -1.81140         5.68593         0.52734
   C       -1.92969         4.94283         3.23023
  Cl       -3.72425         7.58953         3.76193
   C       -2.37507         8.97560        -1.62431
   C       -2.21789         9.50238        -2.92660
   C       -2.25089         8.64334        -4.04211
   C       -2.41197         7.28864        -3.77828
   S       -2.52984         6.03946        -4.98788
   C       -2.14456         9.16563        -5.38984
   C       -2.73927        10.28192        -5.90283
   C       -2.40997        10.49915        -7.25824
   C       -1.57040         9.56712        -7.79309
   S       -1.17000         8.37740        -6.59963
   C       -1.02230         9.48384        -9.17041
  Cl       -3.02929        11.84145        -8.14595
   C       -1.99486        10.90246        -2.90254
   C       -1.99971        11.45290        -1.65553
   S       -2.27516        10.23570        -0.43043
   C       -1.87702        12.86128        -1.36947
   C       -2.38190        13.83924        -2.21196
   C       -3.24852        13.74490        -3.41620
   N       -1.99614        15.04883        -1.72474
   C       -1.23423        14.89322        -0.61042
   C       -0.68645        16.05369         0.13933
   C       -1.15374        13.54075        -0.32928
   C       -0.39960        13.04255         0.79625
   C       -0.74713        12.05588         1.63783
   C        0.04972        11.63776         2.75157
   C        1.27075        12.09342         3.15903
   C        1.75683        11.47425         4.33338
   C        2.95722        11.74304         5.02230
   C        3.86296        12.80556         4.63402
   C        5.22732        12.80825         4.68539
   C        5.78828        14.04698         4.30578
   C        4.87587        15.00493         3.97533
   S        3.27361        14.36483         4.11811
   C        5.11279        16.40101         3.52726
  Cl        7.48915        14.31517         4.27318
   C        3.22456        10.95004         6.13319
   C        2.33732         9.95528         6.60929
   C        1.10674         9.73384         5.95769
   C        0.86654        10.47769         4.80954
   S       -0.55467        10.37787         3.80821
   C        0.14481         8.80501         6.51645
   C       -0.21307         8.68524         7.82863
   C       -1.17233         7.67273         8.04160
   C       -1.55143         7.00785         6.91208
   S       -0.71976         7.65651         5.53698
   C       -2.51426         5.88540         6.78525
  Cl       -1.79813         7.31724         9.60703
   C        2.85183         9.27980         7.74244
   C        4.06485         9.75103         8.15750
   S        4.63780        11.06284         7.14641
   C        4.85136         9.28883         9.25110
   C        4.58366         8.22189        10.08670
   C        5.57897         8.05449        11.05235
   C        6.60439         9.00235        10.95063
   S        6.35191        10.09652         9.66562
   C        7.55816         8.74522        11.97813
   C        7.13058         7.63794        12.71910
   C        5.87775         7.16058        12.16487
   C        5.13525         6.09461        12.58313
   C        5.52216         5.29065        13.67522
   N        5.83134         4.63225        14.56185
   C        3.93430         5.72054        11.94552
   N        2.96000         5.40934        11.42668
   C        8.02015         7.31231        13.76174
   C        9.08257         8.16242        13.79017
   S        9.03377         9.37873        12.55484
   H       -4.37206        -3.75359        -4.34812
   H       -4.03701        -2.57308        -6.65914
   H       -2.89441         3.53347        -6.27082
   H       -2.93706         4.76416        -1.61492
   H       -3.81208         8.64850         0.99612
   H       -1.24358         5.41307         3.93524
   H       -1.44704         4.07133         2.79635
   H       -2.81482         4.62447         3.77975
   H       -3.42244        10.90530        -5.35674
   H       -1.41941        10.29564        -9.77491
   H       -1.29070         8.53384        -9.63081
   H        0.06510         9.55337        -9.15596
   H       -1.77403        11.47046        -3.78559
   H       -3.82586        12.82427        -3.38987
   H       -2.65809        13.75413        -4.33393
   H       -3.93571        14.58941        -3.45115
   H       -2.24478        15.93534        -2.13382
   H       -0.79610        16.96727        -0.44103
   H        0.36972        15.90379         0.35824
   H       -1.20497        16.18190         1.08970
   H        0.51215        13.59323         0.99438
   H       -1.69165        11.54781         1.52360
   H        1.81656        12.84875         2.62673
   H        5.82413        11.95504         4.94821
   H        6.12090        16.70604         3.79789
   H        4.39611        17.07841         3.98728
   H        5.00728        16.48061         2.44444
   H        0.15840         9.31923         8.61251
   H       -3.03171         5.74303         7.73077
   H       -1.99722         4.96065         6.52808
   H       -3.24439         6.09582         6.00618
   H        2.34727         8.45943         8.21722
   H        3.71211         7.60204         9.98904
   H        7.88692         6.49954        14.45203
   H        9.91134         8.15740        14.46927
*
