# ORCA input file
# SCF done       -250.061233659985          0.000709624031
! CAM-B3LYP def2-SVP def2/J RIJCOSX Grid4 TightSCF
%maxcore 5000
%tddft
    Mode sTDDFT
    Ethresh 5.0
    maxcore 5000
end

%pal
  nprocs 6
  end
* xyz 0 1
   C       -0.71325         0.95137        -3.52420
   C       -2.02415         1.19159        -3.20828
   C       -3.11123         0.79309        -4.01064
   N       -4.02785         0.51609        -4.64413
   C       -2.43093         1.81083        -2.00932
   N       -2.81467         2.25983        -1.02508
   C       -0.24410         0.08582        -4.59977
   C        1.09469        -0.30964        -4.30942
   C        1.78423        -1.15688        -5.12777
   C        1.16103        -1.64383        -6.29904
   C       -0.17099        -1.23889        -6.60278
   C       -0.86538        -0.36819        -5.73191
   C       -0.77693        -1.72512        -7.77908
   C       -0.10293        -2.57284        -8.61509
   C        1.20773        -2.97261        -8.31437
   C        1.82569        -2.51856        -7.18102
   C        1.53907         0.34829        -3.06623
   O        2.58829         0.20766        -2.48123
   C        0.43756         1.28849        -2.70784
   C        0.67875         2.30361        -1.84297
   C       -0.06029         3.52146        -1.64411
   C       -0.81989         4.09594        -2.67695
   C       -1.47296         5.28019        -2.45491
   C       -1.38809         5.92449        -1.20655
   C       -0.63350         5.37019        -0.18169
   C        0.03468         4.18595        -0.41332
   C       -2.14818         7.15335        -1.27384
   C       -2.71002         7.26178        -2.55798
   C       -2.33228         6.07345        -3.40958
   C       -1.53929         6.50491        -4.65722
   C       -0.28339         7.29768        -4.31512
   C       -3.57534         5.26914        -3.83753
   C       -4.46220         4.87321        -2.66330
   C       -3.48125         8.34681        -2.89154
   C       -3.69287         9.37001        -1.95356
   C       -3.12644         9.24625        -0.67754
   C       -2.36439         8.14931        -0.33079
   C       -4.49227        10.50366        -2.35452
   C       -4.61763        11.67541        -1.70277
   C       -5.42708        12.76160        -2.16163
   C       -6.29896        12.80864        -3.21249
   C       -6.94353        14.05721        -3.37188
   C       -7.87175        14.42974        -4.36405
   C       -8.36047        13.46702        -5.33111
   C       -8.74379        12.17582        -5.10898
   C       -9.16348        11.52309        -6.28847
   C       -9.10239        12.29406        -7.41208
   S       -8.52394        13.87799        -7.01543
   C       -9.45903        11.93353        -8.80784
  Cl       -9.70116         9.88514        -6.28922
   C       -8.30664        15.74965        -4.35307
   C       -7.87417        16.69117        -3.38827
   C       -6.93562        16.32596        -2.39819
   C       -6.51250        15.00322        -2.40610
   S       -5.35998        14.29355        -1.31058
   C       -6.43895        17.30485        -1.45381
   C       -6.09883        18.60424        -1.70294
   C       -5.66054        19.28339        -0.54630
   C       -5.66033        18.52545         0.58822
   S       -6.20654        16.92156         0.22961
   C       -5.27005        18.91378         1.96698
  Cl       -5.17394        20.93588        -0.58472
   C       -8.53710        17.92870        -3.53969
   C       -9.42178        17.96234        -4.58419
   S       -9.48442        16.43590        -5.43781
   C      -10.25916        19.04859        -5.00368
   C      -10.25459        20.33715        -4.45464
   C      -11.12587        21.35577        -4.90866
   N      -10.97824        22.55205        -4.27658
   C      -10.05713        22.51739        -3.39702
   S       -9.24085        20.99212        -3.19960
   C      -12.09477        21.13775        -5.91320
   C      -12.06848        19.86687        -6.49217
   C      -11.16853        18.86130        -6.06268
   N      -11.24034        17.70908        -6.77765
   C      -12.09645        17.78174        -7.72194
   S      -12.96542        19.28131        -7.85110
   C      -12.92791        22.23876        -6.28836
   C      -14.22399        22.21385        -6.70033
   C      -14.98231        23.36896        -7.15697
   C      -14.45731        24.55916        -7.58308
   C      -15.23467        25.64352        -8.04154
   N      -15.81570        26.56000        -8.41619
   C      -13.07872        24.85075        -7.66852
   N      -11.97926        25.15421        -7.80028
   C      -16.39085        22.99852        -7.17754
   C      -16.50252        21.62567        -6.81496
   C      -15.16600        21.08083        -6.52856
   O      -14.90657        19.95297        -6.15881
   C      -17.70938        20.99055        -6.75699
   C      -18.88353        21.71317        -7.06624
   C      -18.78137        23.08870        -7.42352
   C      -17.51720        23.71987        -7.47369
   C      -19.96003        23.80095        -7.72481
   C      -21.18146        23.18582        -7.67774
   C      -21.28075        21.83135        -7.32656
   C      -20.15624        21.11068        -7.02787
   H        2.79467        -1.45174        -4.88644
   H       -1.87081        -0.07101        -5.98760
   H       -1.78737        -1.41693        -8.00465
   H       -0.57634        -2.94078        -9.51304
   H        1.72522        -3.64180        -8.98539
   H        2.83477        -2.82297        -6.94438
   H        1.60048         2.20907        -1.27615
   H       -0.84856         3.62448        -3.64888
   H       -0.56198         5.85997         0.77751
   H        0.62519         3.73852         0.37263
   H       -2.18896         7.11253        -5.29047
   H       -1.26362         5.61255        -5.22353
   H       -0.53793         8.20103        -3.76517
   H        0.23776         7.58438        -5.22564
   H        0.39299         6.70389        -3.70402
   H       -3.24583         4.36983        -4.36345
   H       -4.15448         5.87064        -4.54177
   H       -3.90706         4.28559        -1.93562
   H       -5.29860         4.27469        -3.01677
   H       -4.85590         5.75545        -2.16364
   H       -3.91931         8.43145        -3.87598
   H       -3.30143        10.01797         0.05587
   H       -1.94311         8.06879         0.66004
   H       -5.01261        10.38010        -3.29532
   H       -4.07805        11.85628        -0.78406
   H       -6.46933        11.97959        -3.87265
   H       -8.77187        11.71411        -4.13922
   H       -9.70647        10.87624        -8.86234
   H       -8.62883        12.14053        -9.48157
   H      -10.31745        12.51394        -9.14529
   H       -6.11424        19.05508        -2.67779
   H       -4.94905        19.95242         1.97804
   H       -4.45445        18.28663         2.32522
   H       -6.10927        18.79524         2.65164
   H       -8.38619        18.74605        -2.86116
   H       -9.77622        23.35965        -2.79566
   H      -12.29476        16.97655        -8.40176
   H      -12.45116        23.20152        -6.14785
   H      -17.76747        19.94811        -6.48077
   H      -17.47287        24.76389        -7.74066
   H      -19.87832        24.84335        -7.99581
   H      -22.07831        23.73990        -7.91107
   H      -22.25259        21.36189        -7.29346
   H      -20.22666        20.06743        -6.75648
*
