# ORCA input file
# SCF done       -193.193919581592          0.000521881119
! CAM-B3LYP def2-SVP def2/J RIJCOSX Grid4 TightSCF
%maxcore 5000
%tddft
    Mode sTDDFT
    Ethresh 5.0
    maxcore 5000
end

%pal
  nprocs 6
  end
* xyz 0 1
   C       -3.67449        -0.06689         2.77147
   C       -2.56327        -0.87419         2.78948
   C       -2.29610        -1.82958         3.79187
   N       -2.01953        -2.62432         4.57314
   C       -1.53574        -0.87976         1.82474
   N       -0.66163        -0.94165         1.08093
   C       -4.73426        -0.07487         3.77669
   C       -5.71752         0.87626         3.40730
   C       -6.84584         1.10823         4.15468
   C       -7.01324         0.36563         5.32869
   C       -6.02615        -0.58086         5.69193
   C       -4.88507        -0.81559         4.93332
   S       -6.42822        -1.38511         7.17818
   C       -7.89703        -0.45259         7.29004
   C       -8.07892         0.41739         6.26795
  Br       -9.05091        -0.71394         8.74506
   C       -5.30880         1.52460         2.14951
   O       -5.92594         2.38757         1.54707
   C       -4.02439         0.92766         1.77924
   C       -3.26323         1.26581         0.68198
   C       -3.48286         2.20519        -0.32367
   S       -4.86501         3.24872        -0.48202
   C       -4.23995         4.00235        -1.90448
   C       -2.98233         3.46370        -2.26848
   C       -2.55598         2.44125        -1.37974
   C       -1.33351         1.78991        -1.60320
   C       -0.57573         2.16115        -2.68368
   F        0.59241         1.55104        -2.91600
   C       -1.00044         3.17653        -3.56302
   F       -0.22436         3.50369        -4.60595
   C       -2.18898         3.82680        -3.36694
   C       -4.92684         5.03019        -2.57587
   C       -6.17376         5.47002        -2.25056
   C       -6.81307         6.52463        -2.95746
   N       -6.14550         7.17193        -3.91924
   N       -6.63912         8.14242        -4.59257
   C       -7.88982         8.61084        -4.43232
   C       -8.71530         7.99542        -3.44531
   C       -8.15035         6.92632        -2.67570
   N       -9.00434         6.44616        -1.77906
   S      -10.38898         7.25734        -1.89004
   N       -9.96355         8.25856        -3.08356
   C       -8.22152         9.69071        -5.27845
   C       -9.40265        10.36540        -5.46001
   C       -9.53752        11.44510        -6.37723
   C      -10.79062        11.96539        -6.45671
   C      -11.71732        11.31474        -5.61054
   S      -10.94120        10.04940        -4.68863
   C      -13.07261        11.57686        -5.49155
   C      -13.82149        12.57943        -6.14561
   C      -15.14964        12.56006        -5.83836
   C      -15.51544        11.53865        -4.93128
   S      -14.10872        10.60957        -4.47040
   C      -16.79361        11.25477        -4.49384
   C      -17.09487        10.22290        -3.60884
   C      -18.33674         9.78777        -3.20597
   C      -19.65853        10.04151        -3.71323
   C      -20.00230        10.37979        -5.00167
   C      -21.32864        10.57209        -5.43575
   N      -22.38613        10.76431        -5.84048
   C      -19.09331        10.46327        -6.07478
   N      -18.41128        10.49836        -6.99841
   C      -20.60771         9.64786        -2.67204
   C      -19.89905         8.97926        -1.64218
   C      -18.45731         8.98574        -1.96564
   O      -17.55355         8.48027        -1.33607
   C      -20.52394         8.44867        -0.54083
   C      -21.91253         8.59418        -0.44440
   C      -22.60818         9.27698        -1.46950
   C      -21.97672         9.80706        -2.58916
   S      -24.31316         9.35217        -1.14479
   C      -24.07264         8.47238         0.34148
   C      -22.78263         8.14068         0.58480
  Br      -25.54696         8.07692         1.43154
   H       -7.57576         1.83967         3.84531
   H       -4.16351        -1.54731         5.25546
   H       -8.92876         1.06914         6.17893
   H       -2.33143         0.72942         0.57394
   H       -0.96719         1.00525        -0.96020
   H       -2.49509         4.59859        -4.05349
   H       -4.43807         5.50850        -3.41326
   H       -6.73291         5.02117        -1.44132
   H       -7.38741        10.01403        -5.88959
   H       -8.69567        11.79371        -6.94879
   H      -11.06942        12.77932        -7.10112
   H      -13.36710        13.28397        -6.81831
   H      -15.88097        13.23540        -6.24469
   H      -17.58320        11.89214        -4.86447
   H      -16.26085         9.73676        -3.11050
   H      -19.96101         7.93615         0.22334
   H      -22.54928        10.32240        -3.34234
   H      -22.45589         7.59869         1.45339
*
