# ORCA input file
# SCF done       -176.652566100589          0.000905265096
! CAM-B3LYP def2-SVP def2/J RIJCOSX Grid4 TightSCF
%maxcore 5000
%tddft
    Mode sTDDFT
    Ethresh 5.0
    maxcore 5000
end

%pal
  nprocs 6
  end
* xyz 0 1
   C       -4.57956        -0.80870         0.62073
   C       -5.27902        -1.84207         1.20274
   C       -4.75301        -3.13122         1.41438
   N       -4.38517        -4.20093         1.61558
   C       -6.60462        -1.77595         1.67216
   N       -7.68036        -1.80413         2.07823
   C       -3.20162        -0.89869         0.14213
   C       -2.82307         0.36120        -0.38232
   C       -1.58150         0.60283        -0.91451
   C       -0.66314        -0.45347        -0.93139
   C       -1.04838        -1.70776        -0.40580
   C       -2.30681        -1.95104         0.13349
   S        0.23626        -2.87261        -0.52539
   C        1.25855        -1.67307        -1.27074
   C        0.67123        -0.46283        -1.42280
  Br        3.00594        -2.13113        -1.77849
   C       -3.95802         1.29437        -0.24920
   O       -3.96844         2.46495        -0.59897
   C       -5.03927         0.53658         0.37261
   C       -6.30218         1.01650         0.66648
   C       -6.86138         2.27454         0.48405
   S       -6.06432         3.67314        -0.18504
   C       -7.46532         4.66634        -0.00660
   C       -8.54176         3.94624         0.55818
   C       -8.20290         2.59446         0.83837
   C       -9.15939         1.73942         1.40520
   C      -10.40915         2.23192         1.67845
   F      -11.33764         1.43067         2.22031
   C      -10.74359         3.57050         1.40120
   F      -11.98064         4.01288         1.68627
   C       -9.82934         4.42484         0.84837
   C       -7.48256         6.02754        -0.39029
   C       -6.42735         6.66173        -0.96204
   C       -6.35287         8.02965        -1.37349
   C       -7.03622         9.09476        -0.91066
   C       -8.02712         9.06320         0.20955
   C       -6.85609        10.43619        -1.57908
   N       -7.90049        10.62614        -2.56522
   C       -7.76066        10.29128        -3.86548
   C       -8.79965        10.08788        -4.71986
   C       -8.63869         9.85039        -6.09485
   C       -9.66892         9.60331        -6.96641
   C       -9.57775         9.37594        -8.35975
   C      -10.77339         9.14177        -8.96978
   C      -11.88038         9.16030        -8.09325
   S      -11.35506         9.50784        -6.46251
   C      -13.20993         8.92312        -8.38859
   C      -13.77530         8.62951        -9.64779
   C      -15.11551         8.41039        -9.59557
   C      -15.69215         8.51194        -8.29663
   S      -14.44368         8.93335        -7.14107
   C      -17.02196         8.26623        -8.07666
   C      -17.81830         8.25584        -6.89975
   C      -19.16642         7.85137        -6.99823
   O      -19.58431         7.53925        -8.25766
   C      -20.59974         6.58306        -8.48344
   C      -20.02600         7.82433        -5.85962
   O      -21.32447         7.47201        -6.09476
   C      -22.21496         7.40912        -5.00729
   C      -19.56238         8.15599        -4.60633
   C      -18.22912         8.55502        -4.46640
   C      -17.35539         8.61909        -5.60649
   N      -16.14476         9.03790        -5.27094
   S      -16.09744         9.31869        -3.68071
   N      -17.62311         8.92525        -3.33967
   H       -1.32461         1.57445        -1.30650
   H       -2.54942        -2.92617         0.52079
   H        1.15682         0.38899        -1.86290
   H       -6.98033         0.30245         1.11106
   H       -8.94800         0.70736         1.63607
   H      -10.11317         5.44424         0.64578
   H       -8.41565         6.54861        -0.24787
   H       -5.54547         6.06797        -1.17026
   H       -5.60285         8.21998        -2.13274
   H       -7.75364         8.30538         0.94016
   H       -9.03123         8.83836        -0.15331
   H       -8.06458        10.03086         0.70772
   H       -5.89318        10.49804        -2.08951
   H       -6.92037        11.24866        -0.84825
   H       -8.84441        10.61223        -2.20326
   H       -6.74071        10.24186        -4.22200
   H       -9.81169        10.11629        -4.33753
   H       -7.63566         9.85902        -6.50108
   H       -8.62928         9.39383        -8.86773
   H      -10.88825         8.95030       -10.02159
   H      -13.18899         8.58564       -10.54858
   H      -15.72307         8.16838       -10.45021
   H      -17.57605         8.00513        -8.96927
   H      -20.50139         5.72392        -7.81621
   H      -20.45833         6.25771        -9.51489
   H      -21.59642         7.01590        -8.37303
   H      -23.16711         7.09382        -5.43128
   H      -22.33594         8.38606        -4.52999
   H      -21.88897         6.67648        -4.26287
   H      -20.18966         8.14136        -3.73294
*
