# ORCA input file
# SCF done       -138.964119260013          0.000366506071
! CAM-B3LYP def2-SVP def2/J RIJCOSX Grid4 TightSCF
%maxcore 5000
%tddft
    Mode sTDDFT
    Ethresh 5.0
    maxcore 5000
end

%pal
  nprocs 6
  end
* xyz 0 2
   C        1.15025        -4.70767        -7.86100
   C        2.08759        -5.52701        -7.36071
   C        3.03836        -6.30352        -8.09323
   C        3.88324        -7.02738        -7.31658
   C        3.67360        -6.87629        -5.92435
   S        2.32984        -5.79816        -5.62532
   C        4.42478        -7.41141        -4.88703
   C        5.55603        -8.23936        -4.95338
   C        6.13687        -8.47698        -3.73161
   C        5.51827        -7.82353        -2.65942
   S        4.07671        -7.00396        -3.22247
   C        5.94091        -7.83498        -1.32378
   C        5.65118        -6.90967        -0.34340
   C        5.08204        -5.60666        -0.43779
   C        4.64701        -5.15134         0.83434
   C        4.95269        -6.00177         1.87484
   S        5.80090        -7.38840         1.36441
   O        7.39308        -6.97374         1.83907
   O        4.04764        -3.97195         1.06215
   C        5.13777        -4.89890        -1.65719
   C        4.31611        -3.92186        -2.14800
   C        4.39779        -3.56320        -3.50995
   O        3.43967        -2.75467        -4.04842
   C        5.22668        -3.99987        -4.53909
   C        6.34752        -4.85644        -4.87792
   O        7.08846        -5.53337        -4.19880
   N        6.43573        -4.76358        -6.27118
   C        5.49091        -3.93708        -6.86909
   O        5.39924        -3.73104        -8.05469
   C        4.70962        -3.44278        -5.73806
   C        3.60228        -2.69595        -5.40300
   C        2.67285        -2.03217        -6.24433
   C        1.55327        -1.40870        -5.81677
   C        0.60998        -0.85571        -6.73692
   C       -0.54237        -0.22424        -6.45904
   C       -1.05690         0.08777        -5.09150
   C       -1.44457         0.21240        -7.60045
   N       -1.61874        -0.81599        -8.59931
   C       -0.75109        -0.99200        -9.62122
   C       -0.59819        -2.15547       -10.30159
   C        0.26165        -2.35244       -11.39989
   C        1.08463        -1.56357       -12.12613
   C        1.81907        -2.21263       -13.17348
   C        1.62383        -3.53681       -13.32711
   S        0.43194        -4.02668       -12.06672
   O        1.03413        -4.89193       -11.08021
   O       -0.80381        -4.48547       -12.64603
   C        2.14498        -4.51345       -14.22743
   C        3.02442        -4.28631       -15.20480
   H        1.04893        -4.60894        -8.92865
   H        0.48613        -4.15190        -7.22304
   H        3.04461        -6.26696        -9.16730
   H        4.66580        -7.65964        -7.69733
   H        5.93676        -8.61898        -5.88425
   H        7.03498        -9.05403        -3.59796
   H        6.57812        -8.66711        -1.04618
   H        4.68773        -5.86389         2.90157
   H        7.97886        -7.73579         1.86813
   H        4.00780        -3.47370         0.23488
   H        5.90575        -5.25359        -2.33187
   H        3.47217        -3.51331        -1.60982
   H        7.13737        -5.26060        -6.79957
   H        2.90000        -2.10223        -7.29913
   H        1.35598        -1.35834        -4.75646
   H        0.86755        -1.00686        -7.77927
   H       -0.32903        -0.14628        -4.32248
   H       -1.96738        -0.47910        -4.89251
   H       -1.30686         1.14662        -5.02282
   H       -1.02415         1.09493        -8.09366
   H       -2.42962         0.48064        -7.20857
   H       -2.07570        -1.65658        -8.27112
   H       -0.19858        -0.10875        -9.91171
   H       -1.15069        -3.03183        -9.99025
   H        1.20532        -0.50456       -11.96382
   H        2.48835        -1.63454       -13.79140
   H        1.75912        -5.51086       -14.06103
   H        3.42449        -3.30504       -15.39353
   H        3.36790        -5.07972       -15.84434
*
