# ORCA input file
# SCF done       -170.797189305683          0.000635335077
! CAM-B3LYP def2-SVP def2/J RIJCOSX Grid4 TightSCF
%maxcore 5000
%tddft
    Mode sTDDFT
    Ethresh 5.0
    maxcore 5000
end

%pal
  nprocs 6
  end
* xyz 0 1
   C       16.97829        -7.98109         1.51738
   C       17.84844        -8.49928         2.60637
   C       18.10075        -7.95688         3.83426
   C       18.85291        -8.79590         4.67279
   C       19.17228        -9.99832         4.08806
   S       18.56729       -10.06712         2.45942
   C       19.76465       -11.15850         4.66756
   C       20.12660       -11.39974         5.97421
   C       20.48806       -12.72950         6.20510
   C       20.37485       -13.54617         5.09812
   S       19.92464       -12.60109         3.71228
   C       20.65137       -14.95162         5.07508
   C       20.18930       -15.93454         4.26795
   C       19.18963       -15.92087         3.24692
   C       19.00390       -16.90691         2.29536
   C       17.96148       -16.65398         1.40217
   C       17.30071       -15.47261         1.66673
   S       17.96570       -14.70184         3.07502
   C       16.31575       -14.77216         0.91973
   C       15.58736       -15.14851        -0.19108
   C       14.82596       -14.11131        -0.72527
   C       14.95859       -12.90915        -0.04902
   S       16.02141       -13.10199         1.31336
   C       14.42538       -11.65373        -0.43312
   C       14.67325       -10.46107         0.16682
   S       15.51776       -10.33525         1.69937
   C       15.52692        -8.50824         1.67235
   C       14.65549        -8.12357         0.52348
   C       14.38077        -6.67672         0.28977
   C       14.26525        -9.14160        -0.28208
   C       13.52394        -8.91933        -1.50928
   C       13.76683        -9.51209        -2.69225
   C       13.01507        -9.21672        -3.86886
   C       13.27795        -9.78367        -5.06625
   C       12.57900        -9.53516        -6.29118
   C       12.95170       -10.20603        -7.46288
   C       12.31536       -10.03987        -8.71248
   N       12.88960       -10.73139        -9.73437
   C       13.87608       -11.43186        -9.33499
   S       14.26342       -11.33459        -7.64093
   C       11.21658        -9.17087        -8.84967
   C       10.87954        -8.45065        -7.70143
   C       11.51295        -8.62216        -6.44707
   N       10.99581        -7.83167        -5.46370
   C       10.03792        -7.10363        -5.88350
   S        9.60695        -7.27891        -7.56464
   C       10.52889        -8.97497       -10.08937
   C       10.27116        -9.95066       -10.99876
   C        9.76465        -9.77217       -12.34784
   C        9.54797        -8.58061       -12.99019
   C        9.06961        -8.46894       -14.31256
   N        8.67968        -8.31107       -15.38089
   C        9.76543        -7.30190       -12.43548
   N        9.92199        -6.22628       -12.06450
   C        9.57763       -11.09546       -12.92964
   C        9.91988       -12.07362       -11.96432
   C       10.32224       -11.40980       -10.70877
   O       10.52152       -11.95229        -9.64482
   C        9.84492       -13.42169       -12.21629
   C        9.42403       -13.82659       -13.48718
   C        9.08571       -12.84251       -14.44662
   C        9.15257       -11.47939       -14.18899
   S        8.58666       -13.56006       -15.94894
   C        8.83787       -15.14935       -15.27730
   C        9.27214       -15.14595       -13.99463
  Br        8.50220       -16.66325       -16.33205
   H       16.95646        -6.88962         1.54133
   H       17.35729        -8.30801         0.54702
   H       17.74785        -6.98457         4.13203
   H       19.13183        -8.53771         5.67812
   H       20.10391       -10.64600         6.74044
   H       20.77639       -13.10541         7.17152
   H       21.34101       -15.25733         5.85447
   H       20.62558       -16.91685         4.41294
   H       19.64290       -17.77062         2.22974
   H       17.71635       -17.29105         0.57145
   H       15.61790       -16.14186        -0.60218
   H       14.20716       -14.21501        -1.59962
   H       13.80161       -11.66508        -1.31613
   H       15.12849        -8.16221         2.63043
   H       14.52562        -6.10716         1.20481
   H       13.35956        -6.52936        -0.05708
   H       15.04841        -6.27625        -0.47457
   H       12.74738        -8.16546        -1.45923
   H       14.58270       -10.21548        -2.79115
   H       12.20546        -8.50675        -3.78457
   H       14.08878       -10.49936        -5.14263
   H       14.46173       -12.05345        -9.98391
   H        9.50365        -6.41215        -5.26169
   H       10.18847        -7.96327       -10.27517
   H       10.10755       -14.14164       -11.45713
   H        8.87827       -10.77024       -14.95189
   H        9.47630       -16.03597       -13.42791
*
