# ORCA input file
# SCF done       -142.400047797216          0.000978250526
! CAM-B3LYP def2-SVP def2/J RIJCOSX Grid4 TightSCF
%maxcore 5000
%tddft
    Mode sTDDFT
    Ethresh 5.0
    maxcore 5000
end

%pal
  nprocs 6
  end
* xyz 0 1
   C       -0.08610        -2.96025        -5.27964
   C        1.03642        -2.65773        -4.61256
   C        1.88453        -1.51506        -4.79394
   C        2.95113        -1.47396        -3.96429
   C        3.03852        -2.57157        -3.06397
   S        1.69757        -3.67197        -3.31937
   C        3.99668        -2.78787        -2.10219
   C        5.10682        -1.96750        -1.78325
   C        5.85998        -2.43797        -0.75510
   C        5.39597        -3.65673        -0.19508
   S        3.96055        -4.19304        -1.04960
   C        5.96255        -4.30084         0.87508
   C        5.54688        -5.48834         1.49157
   C        6.10313        -6.04915         2.65028
   C        7.26060        -5.45144         3.38048
   C        5.45902        -7.21100         3.04630
   C        4.41378        -7.59962         2.21807
   S        4.22845        -6.46913         0.90482
   C        3.56402        -8.72227         2.32359
   C        3.50310        -9.52924         3.41717
   C        2.68550       -10.66632         3.55508
   S        1.73619       -11.36953         2.26400
   C        1.11066       -12.66283         3.26886
   C        1.61637       -12.52400         4.57060
   C        2.49607       -11.41850         4.70065
   S        3.12621       -11.24917         6.30528
   C        2.20570       -12.65266         6.79875
   C        2.30115       -13.06579         8.19550
   O        2.99301       -12.51688         9.02014
   O        1.52777       -14.13489         8.44632
   C        1.51565       -14.60874         9.79209
   C        0.56401       -13.79891        10.66140
   C        1.46947       -13.21349         5.79565
   C        0.26420       -13.66727         2.76865
   C       -0.20697       -13.87680         1.46633
   C        0.09116       -12.98471         0.31100
   C       -0.98771       -15.02124         1.35310
   C       -1.16273       -15.72759         2.53468
   S       -0.32108       -14.92446         3.83390
   C       -1.86619       -16.91688         2.79651
   C       -2.48145       -17.70128         1.85899
   C       -3.15252       -18.88566         2.18200
   C       -3.73036       -19.73880         1.27297
   C       -4.40643       -20.94880         1.56259
   C       -4.86311       -21.61498         0.46805
   C       -4.57280       -20.97196        -0.75935
   S       -3.70401       -19.47722        -0.46476
   C       -4.88937       -21.40167        -2.02729
   C       -5.57695       -22.59431        -2.38379
   C       -5.74778       -22.76503        -3.71394
   C       -5.20568       -21.71074        -4.52135
   S       -4.46515       -20.49528        -3.46669
   C       -5.22640       -21.60720        -5.85765
   H       -0.45344        -2.31389        -6.05721
   H       -0.65148        -3.84733        -5.06162
   H        1.65413        -0.77371        -5.53869
   H        3.68723        -0.68944        -3.96248
   H        5.31130        -1.05552        -2.31489
   H        6.73713        -1.94757        -0.36914
   H        6.82885        -3.82110         1.31229
   H        7.01806        -4.44968         3.73415
   H        8.13172        -5.37987         2.72965
   H        7.51809        -6.06819         4.23730
   H        5.75307        -7.77901         3.91084
   H        2.91200        -8.92576         1.48397
   H        4.09892        -9.30174         4.29096
   H        2.53206       -14.55677        10.19627
   H        1.19521       -15.65007         9.71984
   H        0.91538       -12.77275        10.73703
   H        0.52177       -14.23118        11.65718
   H       -0.43343       -13.80088        10.22823
   H        0.85418       -14.07849         5.95440
   H        1.16298       -12.95175         0.11436
   H       -0.23877       -11.96580         0.51267
   H       -0.41687       -13.34879        -0.57845
   H       -1.42882       -15.33612         0.42431
   H       -1.89436       -17.23559         3.83092
   H       -2.44339       -17.42106         0.81525
   H       -3.21563       -19.16719         3.22576
   H       -4.53197       -21.28728         2.57646
   H       -5.39587       -22.54811         0.50746
   H       -5.92131       -23.28634        -1.63593
   H       -6.24294       -23.60477        -4.16855
   H       -5.68869       -22.37001        -6.45916
   H       -4.78811       -20.76929        -6.36779
*
