# ORCA input file
# SCF done       -205.760976139509          0.000984926399
! CAM-B3LYP def2-SVP def2/J RIJCOSX Grid4 TightSCF
%maxcore 5000
%tddft
    Mode sTDDFT
    Ethresh 5.0
    maxcore 5000
end

%pal
  nprocs 6
  end
* xyz 0 1
   C       -1.61428         0.06835        -1.10123
   C       -0.99582         1.31503        -1.12727
   C       -1.83636         2.55021        -1.07242
   C        0.40289         1.41660        -1.20284
   C        1.06342         2.75703        -1.23370
   C        1.17531         0.26070        -1.24708
   C        0.55423        -0.97147        -1.22030
   C       -0.84440        -1.08189        -1.14885
   C       -1.20474        -2.49301        -1.14005
   C       -2.47659        -2.99579        -1.22312
   C       -3.63833        -2.19628        -1.25967
   N       -4.62000        -1.60170        -1.28454
   C       -2.80485        -4.36430        -1.32335
   N       -3.14601        -5.45587        -1.42955
   C        0.02898        -3.26218        -1.11750
   C        1.16584        -2.31009        -1.24629
   O        2.35080        -2.56057        -1.29556
   C        0.10317        -4.59047        -0.81445
   C        1.22417        -5.44968        -0.82917
   C        2.44701        -5.36442        -1.47882
   C        3.25035        -6.47093        -1.22818
   C        2.64285        -7.41359        -0.37035
   S        1.07161        -6.95599         0.08465
   C        3.55894        -8.46774        -0.13343
   C        4.73973        -8.20017        -0.85096
   C        4.57947        -6.94820        -1.57446
   C        5.48776        -6.36569        -2.40835
   C        6.75572        -6.93950        -2.64382
   N        7.78862        -7.39930        -2.83608
   C        5.22765        -5.16929        -3.11158
   N        5.03279        -4.21372        -3.71368
   C        5.71479        -9.17517        -0.66752
   C        5.29050       -10.17510         0.19217
   S        3.65430        -9.91078         0.76821
   C        6.07350       -11.29184         0.61824
   C        5.65418       -12.23506         1.54978
   F        4.41746       -12.14011         2.07447
   C        6.45392       -13.28939         2.00298
   F        5.91278       -14.11109         2.92268
   C        7.75512       -13.51614         1.56796
   C        8.20005       -12.59167         0.58891
   C        7.38706       -11.51315         0.13192
   N        8.10618       -10.83418        -0.77265
   N        9.24126       -11.46809        -0.83579
   N        9.36799       -12.50830        -0.06326
   C       10.28323       -11.05477        -1.72323
   C        8.60007       -14.55688         2.06220
   C        9.90182       -14.80246         1.65595
   C       10.47335       -15.85861         2.35806
   C        9.59780       -16.42124         3.30484
   S        8.07647       -15.65619         3.32571
   C       10.28149       -17.46151         3.98105
   C       11.58350       -17.56694         3.45519
   C       11.74613       -16.56132         2.41827
   C       12.85559       -16.31327         1.66489
   C       14.04065       -17.06780         1.79834
   N       15.00033       -17.68732         1.89541
   C       12.89085       -15.28538         0.69858
   N       12.92750       -14.45049        -0.08665
   C       12.33229       -18.56721         4.07057
   C       11.63407       -19.19417         5.08825
   S        9.99200       -18.57054         5.23712
   C       12.10294       -20.26487         5.89111
   C       11.66103       -20.67395         7.10726
   C       11.95389       -22.06226         7.57631
   O       12.76511       -22.82472         7.10554
   C       10.99885       -22.29824         8.67278
   C       10.29557       -21.11209         8.95282
   C        9.32525       -21.10792         9.93918
   C        9.06150       -22.27456        10.65087
   C        9.77604       -23.45257        10.37722
   C       10.74540       -23.45679         9.37932
   C        9.49921       -24.70019        11.15250
   C        8.01123       -22.26254        11.71446
   C       10.80848       -20.04789         8.09912
   C       10.73230       -18.70702         8.36915
   C       11.48161       -17.73207         7.67912
   N       12.10788       -16.91930         7.16417
   C        9.96803       -18.16303         9.42116
   N        9.35119       -17.67108        10.25466
   H       -2.68932         0.01592        -1.03632
   H       -2.89150         2.29703        -1.01904
   H       -1.67016         3.16490        -1.95639
   H       -1.57731         3.15103        -0.20119
   H        0.72374         3.33190        -2.09461
   H        2.14339         2.65272        -1.28966
   H        0.81403         3.32728        -0.33934
   H        2.25219         0.31396        -1.30513
   H       -0.80830        -5.06906        -0.47408
   H        2.72276        -4.53044        -2.09649
   H        6.69192        -9.18521        -1.11289
   H       10.12845       -10.00696        -1.97171
   H       10.25329       -11.65126        -2.63685
   H       11.24548       -11.20712        -1.23778
   H       10.37845       -14.21850         0.89082
   H       13.34986       -18.81651         3.82936
   H       12.87503       -20.88286         5.44204
   H        8.76108       -20.21451        10.15695
   H       11.30470       -24.35273         9.15516
   H        8.45883       -25.00131        11.03437
   H        9.67495       -24.53754        12.21527
   H       10.13653       -25.51286        10.81543
   H        7.55888       -21.27843        11.79895
   H        8.44197       -22.53052        12.67854
   H        7.23020       -22.98843        11.49053
*
