# ORCA input file
# SCF done       -192.850930921063          0.000818131481
! CAM-B3LYP def2-SVP def2/J RIJCOSX Grid4 TightSCF
%maxcore 5000
%tddft
    Mode sTDDFT
    Ethresh 5.0
    maxcore 5000
end

%pal
  nprocs 6
  end
* xyz 0 1
   C       -2.10407        -1.08308        -1.39313
   C       -2.38036        -0.64739        -2.68584
   C       -3.16287         0.61124        -2.88217
   C       -1.93217        -1.37867        -3.79829
   C       -2.23814        -0.91251        -5.18479
   C       -1.19809        -2.54344        -3.60337
   C       -0.92735        -2.96638        -2.31785
   C       -1.37906        -2.24781        -1.19933
   C       -0.95708        -2.94388         0.00931
   C       -1.31658        -2.59787         1.28541
   C       -2.10896        -1.47347         1.60272
   N       -2.74189        -0.57483         1.93376
   C       -0.99066        -3.30332         2.46334
   N       -0.78902        -3.82302         3.46783
   C       -0.15627        -4.09220        -0.39764
   C       -0.17146        -4.15076        -1.88527
   O        0.35170        -4.96706        -2.61306
   C        0.56060        -4.86361         0.47041
   C        1.34534        -6.01849         0.25411
   C        1.50304        -6.85722        -0.84004
   C        2.39261        -7.89273        -0.58122
   C        2.92392        -7.85509         0.72475
   S        2.31008        -6.56014         1.63557
   C        3.85393        -8.91938         0.86148
   C        3.91130        -9.62140        -0.35237
   C        2.96951        -9.02705        -1.28735
   C        2.66575        -9.47458        -2.53777
   C        3.26609       -10.63169        -3.08224
   N        3.73202       -11.58480        -3.51610
   C        1.69878        -8.86158        -3.36523
   N        0.90586        -8.40271        -4.05349
   C        4.85081       -10.65530        -0.33607
   C        5.48594       -10.74742         0.88223
   S        4.91687        -9.55477         2.03581
   C        6.53987       -11.66413         1.23173
   C        6.71039       -12.24636         2.47560
   C        5.89584       -12.09104         3.59732
   N        5.22863       -11.97584         4.52478
   S        8.08659       -13.30647         2.52775
   C        8.47109       -12.95838         0.87223
   C        7.55344       -12.07419         0.31730
   C        7.62161       -11.57591        -0.99456
   N        7.66227       -11.13821        -2.05402
   C        9.62472       -13.52675         0.26358
   C       10.23624       -13.15787        -0.92139
   C       11.37553       -13.91995        -1.17479
   C       11.62467       -14.88734        -0.18421
   S       10.46895       -14.84620         1.06624
   C       12.79526       -15.60857        -0.53455
   C       13.28982       -15.08294        -1.74241
   C       12.41501       -14.01076        -2.18753
   C       12.55456       -13.26534        -3.31978
   C       13.62042       -13.49294        -4.21732
   N       14.49436       -13.68784        -4.93336
   C       11.67591       -12.21331        -3.65901
   N       10.98683       -11.33916        -3.93062
   C       14.44090       -15.72607        -2.18111
   C       14.82504       -16.75022        -1.33029
   S       13.75459       -16.88571         0.05573
   C       15.95225       -17.60280        -1.42923
   C       16.71418       -17.86978        -2.52032
   C       18.08883       -18.42988        -2.31840
   O       18.51612       -18.92256        -1.30093
   C       18.78695       -18.18427        -3.58889
   C       17.88050       -17.67038        -4.53475
   C       18.33066       -17.32385        -5.79641
   C       19.67295       -17.49933        -6.12067
   C       20.57035       -18.03013        -5.17871
   C       20.11772       -18.36865        -3.90767
   C       22.00846       -18.22720        -5.53442
   C       20.15326       -17.11641        -7.48288
   C       16.54963       -17.62171        -3.94045
   C       15.37340       -17.60656        -4.64152
   C       14.10555       -17.77774        -4.05210
   N       13.05804       -17.93796        -3.61007
   C       15.30200       -17.50726        -6.04773
   N       15.19100       -17.43418        -7.18711
   H       -2.45735        -0.50057        -0.55768
   H       -3.42921         1.05377        -1.92640
   H       -4.07717         0.40937        -3.43918
   H       -2.58390         1.33630        -3.45326
   H       -1.82416         0.08083        -5.35532
   H       -3.31490        -0.84997        -5.33881
   H       -1.82076        -1.59420        -5.92057
   H       -0.83972        -3.12277        -4.44108
   H        0.56153        -4.54469         1.50647
   H        0.99880        -6.69062        -1.77470
   H        5.05266       -11.31294        -1.16141
   H        9.87505       -12.36809        -1.55374
   H       15.00444       -15.44416        -3.05133
   H       16.30073       -18.05014        -0.50332
   H       17.65880       -16.90383        -6.52829
   H       20.79337       -18.77316        -3.16902
   H       22.46390       -17.28107        -5.82508
   H       22.10393       -18.90986        -6.37818
   H       22.56148       -18.63544        -4.69308
   H       19.33507       -16.73622        -8.08783
   H       20.59064       -17.97587        -7.98944
   H       20.92340       -16.34862        -7.41483
*
