# ORCA input file
# SCF done       -191.918774960980          0.000458482772
! CAM-B3LYP def2-SVP def2/J RIJCOSX Grid4 TightSCF
%maxcore 5000
%tddft
    Mode sTDDFT
    Ethresh 5.0
    maxcore 5000
end

%pal
  nprocs 6
  end
* xyz 0 1
   C       -3.97517        -2.72788        -0.46986
   C       -5.12145        -2.64970         0.31560
   C       -6.18686        -1.66383        -0.04200
   C       -5.28177        -3.48688         1.43208
   C       -6.51539        -3.40206         2.27118
   C       -4.28335        -4.39960         1.75433
   C       -3.15115        -4.47104         0.96828
   C       -2.98235        -3.64033        -0.15111
   C       -1.70722        -3.95328        -0.78377
   C       -1.25050        -3.39460        -1.94898
   C       -1.94480        -2.40002        -2.67176
   N       -2.44834        -1.59022        -3.31085
   C       -0.05615        -3.71981        -2.62657
   N        0.88394        -3.92616        -3.25415
   C       -1.06148        -4.99048         0.01226
   C       -1.98550        -5.35354         1.12067
   O       -1.82526        -6.17909         1.99444
   C        0.19855        -5.45654        -0.22988
   C        0.94845        -6.49180         0.37024
   C        0.64951        -7.44208         1.33762
   C        1.70694        -8.31644         1.55595
   C        2.83541        -8.03467         0.75449
   S        2.58856        -6.69972        -0.26438
   C        3.84103        -8.99245         1.03385
   C        3.34964        -9.88419         2.00665
   C        1.99780        -9.48508         2.37181
   C        1.18435       -10.09500         3.27922
   C        1.60171       -11.23177         4.00579
   N        1.93587       -12.15441         4.59865
   C       -0.12896        -9.66072         3.56582
   N       -1.20142        -9.34850         3.82139
   C        4.25845       -10.89191         2.32000
   C        5.42953       -10.76382         1.59360
   S        5.42148        -9.38345         0.51739
   C        6.55605       -11.61783         1.60705
   N        7.63368       -11.40951         0.90844
   C        8.50835       -12.39797         1.08111
   C        8.11601       -13.43781         1.94439
   S        6.55174       -13.11649         2.57528
   N        8.97744       -14.44104         2.09407
   C       10.05000       -14.23995         1.38516
   S       10.07038       -12.72443         0.44520
   C       11.12406       -15.15642         1.31619
   C       12.31607       -15.02911         0.62459
   C       13.11403       -16.16146         0.77070
   C       12.51441       -17.14907         1.57535
   S       10.98145       -16.68255         2.16222
   C       13.38962       -18.26131         1.64452
   C       14.54201       -17.98043         0.88654
   C       14.40859       -16.64917         0.31681
   C       15.30114       -15.99706        -0.48081
   C       16.52674       -16.57846        -0.87136
   N       17.52117       -17.04521        -1.19862
   C       15.05407       -14.69965        -0.97893
   N       14.85599       -13.64726        -1.38794
   C       15.44871       -19.03705         0.87584
   C       15.01730       -20.10779         1.64220
   S       13.43185       -19.80785         2.34938
   C       15.67781       -21.35600         1.76577
   C       15.47638       -22.35283         2.66379
   C       15.90431       -23.74573         2.32631
   O       16.66891       -24.07066         1.44900
   C       15.13694       -24.60507         3.24388
   C       14.43612       -23.80710         4.16725
   C       13.62215       -24.40652         5.11181
   C       13.50960       -25.79349         5.14294
   C       14.22114       -26.58659         4.22733
   C       15.03525       -25.98145         3.27522
   C       14.10563       -28.07614         4.27023
   C       12.62326       -26.43423         6.16168
   C       14.76876       -22.40856         3.92792
   C       14.68758       -21.39949         4.85020
   C       15.28159       -20.13464         4.66117
   N       15.78607       -19.10955         4.54984
   C       14.08565       -21.54503         6.11640
   N       13.59126       -21.61500         7.14971
   H       -3.87747        -2.07074        -1.31866
   H       -5.90814        -1.09757        -0.92627
   H       -6.35569        -0.96791         0.77906
   H       -7.12897        -2.17462        -0.23837
   H       -7.40132        -3.60859         1.67152
   H       -6.62728        -2.40141         2.68751
   H       -6.47453        -4.11640         3.08868
   H       -4.38174        -5.05473         2.60694
   H        0.73956        -4.96661        -1.03102
   H       -0.29968        -7.46946         1.84311
   H        4.09617       -11.68470         3.02783
   H       12.56775       -14.15431         0.05238
   H       16.39239       -19.03874         0.36081
   H       16.38582       -21.58215         0.97361
   H       13.06235       -23.81212         5.81701
   H       15.58916       -26.57486         2.56333
   H       13.06998       -28.38394         4.12952
   H       14.43284       -28.45796         5.23673
   H       14.71250       -28.53237         3.49316
   H       12.15908       -25.68419         6.79582
   H       13.19471       -27.11574         6.79059
   H       11.83949       -27.01485         5.67603
*
