# ORCA input file
# SCF done       -201.872332558377          0.000593564502
! CAM-B3LYP def2-SVP def2/J RIJCOSX Grid4 TightSCF
%maxcore 5000
%tddft
    Mode sTDDFT
    Ethresh 5.0
    maxcore 5000
end

%pal
  nprocs 6
  end
* xyz 0 1
   C        1.89550        -1.44374        -7.12813
   C        2.39422        -1.64551        -8.41251
   C        1.96452        -0.73217        -9.51500
   C        3.29233        -2.69266        -8.67384
   C        3.82604        -2.90521       -10.05363
   C        3.68397        -3.53626        -7.63962
   C        3.18375        -3.32939        -6.36995
   C        2.28562        -2.28254        -6.09802
   C        1.93277        -2.31402        -4.68197
   C        1.04537        -1.47141        -4.06726
   C        0.35758        -0.43112        -4.72862
   N       -0.23232         0.43159        -5.20343
   C        0.67068        -1.51388        -2.70736
   N        0.30672        -1.48422        -1.61858
   C        2.67379        -3.41007        -4.07795
   C        3.44887        -4.07746        -5.13591
   O        4.17092        -5.05266        -5.01257
   C        2.68364        -3.74480        -2.75210
   C        3.35429        -4.78343        -2.07963
   C        3.24831        -4.94438        -0.69416
   C        3.96385        -6.03374        -0.23219
   C        4.62365        -6.72217        -1.27612
   S        4.37459        -6.02104        -2.80859
   C        5.31166        -7.82644        -0.70962
   C        5.08501        -7.83428         0.68174
   C        4.23871        -6.70485         1.02871
   C        3.80356        -6.35152         2.27164
   C        4.14604        -7.09433         3.42160
   N        4.42780        -7.69861         4.35424
   C        2.98803        -5.22142         2.49330
   N        2.32796        -4.30357         2.68253
   C        5.70996        -8.89942         1.32082
   C        6.40630        -9.69636         0.42533
   S        6.29480        -9.11924        -1.23160
   C        7.13068       -10.87254         0.73068
   C        7.83107       -11.70694        -0.10858
   C        8.14831       -11.78080        -1.53534
   O        7.83881       -11.04062        -2.44006
   N        8.91235       -12.93519        -1.67250
   C        9.44197       -13.38549        -2.93573
   C        9.11108       -13.61936        -0.47884
   O        9.72795       -14.65326        -0.36434
   C        8.41627       -12.82210         0.53274
   C        8.18745       -12.88413         1.88718
   S        7.21791       -11.49923         2.37232
   C        8.59704       -13.86773         2.81774
   C        8.32770       -13.88696         4.17754
   C        8.84977       -15.02153         4.78903
   C        9.52172       -15.86518         3.88164
   S        9.52014       -15.26628         2.28536
   C        9.99729       -16.99732         4.59384
   C        9.62010       -16.86778         5.94419
   C        8.90333       -15.61581         6.11473
   C        8.41839       -15.10517         7.28259
   C        8.56490       -15.79649         8.50384
   N        8.68489       -16.37312         9.48774
   C        7.74655       -13.86592         7.33922
   N        7.19506       -12.86176         7.37951
   C       10.04743       -17.93019         6.73135
   C       10.75692       -18.87028         6.00012
   S       10.86187       -18.43256         4.30003
   C       11.31827       -20.09389         6.43699
   C       11.61930       -20.48770         7.70184
   C       11.79096       -21.94850         7.97715
   O       11.93195       -22.81990         7.15078
   C       11.68941       -22.07445         9.43903
   C       11.61345       -20.79471        10.01858
   C       11.47205       -20.67231        11.38951
   C       11.42171       -21.81592        12.18164
   C       11.51745       -23.09088        11.59974
   C       11.64742       -23.21215        10.22010
   C       11.47607       -24.31613        12.45499
   C       11.26582       -21.67529        13.66140
   C       11.72880       -19.78908         8.96774
   C       12.12817       -18.49308         9.16125
   C       12.45409       -17.60409         8.11861
   N       12.75481       -16.85480         7.30209
   C       12.35546       -17.92546        10.43314
   N       12.55956       -17.41772        11.44162
   H        1.20985        -0.63016        -6.95504
   H        1.25221         0.00323        -9.15163
   H        1.50106        -1.29815       -10.32218
   H        2.82332        -0.20759        -9.93295
   H        4.33324        -2.00952       -10.41091
   H        3.01430        -3.12161       -10.74790
   H        4.52837        -3.73422       -10.07163
   H        4.37232        -4.34904        -7.81714
   H        2.09295        -3.12852        -2.08482
   H        2.66388        -4.27981        -0.08253
   H        5.67260        -9.10713         2.37549
   H        8.97338       -12.79807        -3.72328
   H        9.22008       -14.44432        -3.06775
   H       10.52390       -13.24503        -2.96607
   H        7.77536       -13.10743         4.67183
   H        9.82075       -18.04777         7.77519
   H       11.46974       -20.85129         5.67370
   H       11.38539       -19.70234        11.85325
   H       11.71731       -24.18357         9.75394
   H       10.54359       -24.35963        13.01681
   H       12.29310       -24.30762        13.17564
   H       11.55804       -25.21319        11.84761
   H       11.21233       -20.62825        13.94576
   H       12.10756       -22.13372        14.17915
   H       10.35952       -22.17625        14.00025
*
