# ORCA input file
# SCF done       -168.504302021711          0.000942738110
! CAM-B3LYP def2-SVP def2/J RIJCOSX Grid4 TightSCF
%maxcore 5000
%tddft
    Mode sTDDFT
    Ethresh 5.0
    maxcore 5000
end

%pal
  nprocs 6
  end
* xyz 0 1
   C        5.62447         0.59425         9.19925
   C        6.34932        -0.10942        10.11427
   S        6.95638        -1.61367         9.51760
   C        6.24086        -1.30188         7.99382
   C        5.55974        -0.09047         7.97336
   C        4.95629         0.09495         6.64817
   O        4.25012         0.99154         6.25135
   C        5.45458        -1.07070         5.84275
   C        6.09878        -2.00662         6.74916
   C        6.34990        -3.33985         6.55981
   C        7.01423        -4.09720         7.54473
   N        7.59113        -4.70275         8.33083
   C        5.92181        -4.07473         5.43808
   N        5.54135        -4.71562         4.56532
   C        5.36571        -1.02468         4.49310
   C        6.04454        -1.79232         3.49262
   C        5.50315        -1.89861         2.21106
   C        6.09579        -2.63217         1.19510
   C        7.31410        -3.29256         1.35584
   C        7.93725        -3.12802         2.61247
   C        7.30249        -2.41006         3.67280
   N        8.13754        -2.44464         4.72381
   N        9.17062        -3.12177         4.29403
   N        9.12603        -3.53716         3.06835
   C       10.28058        -3.43268         5.13899
   C        7.88111        -4.09738         0.32436
   C        8.87574        -5.07859         0.41009
   C        9.20359        -5.66659        -0.86963
   N       10.20808        -6.53614        -0.97398
   C       10.80997        -6.91957         0.12424
   C       11.86762        -7.94940        -0.00267
   O       12.17743        -8.45446        -1.06408
   C       12.46126        -8.39176         1.26962
   C       12.09671        -7.91469         2.46481
   C       11.09296        -6.85406         2.64698
   O       10.91131        -6.32138         3.72475
   C       10.40182        -6.42442         1.40924
   N        9.46190        -5.51962         1.52320
   C        8.41676        -5.17627        -1.91887
   S        7.33479        -3.96720        -1.31306
   C        8.43837        -5.52138        -3.30154
   C        7.85881        -4.70385        -4.27569
   C        7.91713        -4.97040        -5.63573
   C        8.57052        -6.09112        -6.15310
   C        9.14741        -6.95156        -5.18482
   C        9.06866        -6.69099        -3.78328
   N        9.66655        -7.71275        -3.15914
   N       10.08500        -8.48201        -4.11675
   N        9.81688        -8.10183        -5.33572
   C       10.82598        -9.67137        -3.83954
   C        8.71638        -6.48604        -7.51733
   C        8.30161        -5.96059        -8.70363
   C        8.58678        -6.62353        -9.98106
   C        9.25621        -7.79376       -10.22974
   C        9.41147        -8.25174       -11.55690
   N        9.53944        -8.63237       -12.63175
   C        9.85154        -8.66595        -9.29617
   N       10.36826        -9.44415        -8.62773
   C        8.00844        -5.79890       -11.00399
   C        7.39216        -4.68294       -10.45992
   C        6.81234        -3.84607       -11.42804
   C        7.00241        -4.34840       -12.68126
   S        7.88203        -5.83476       -12.71379
   C        7.53508        -4.71100        -8.99942
   O        7.11259        -3.87746        -8.22714
   H        5.16157         1.54433         9.39168
   H        6.56416         0.16371        11.12894
   H        4.71864        -0.23944         4.11169
   H        4.55204        -1.42475         2.01780
   H        5.58486        -2.71497         0.24667
   H       11.06219        -2.67872         5.03147
   H       10.66798        -4.40535         4.83418
   H        9.94178        -3.45835         6.17251
   H       13.22411        -9.15353         1.17886
   H       12.55537        -8.27372         3.37644
   H        7.35749        -3.80259        -3.95177
   H        7.45013        -4.27645        -6.31441
   H       11.43653        -9.90820        -4.70781
   H       10.14625       -10.50129        -3.63952
   H       11.44041        -9.48813        -2.95779
   H        9.27495        -7.41345        -7.58926
   H        6.28930        -2.93334       -11.21088
   H        6.67245        -3.92822       -13.61140
*
