# ORCA input file
# SCF done       -219.636924910084          0.000950076737
! CAM-B3LYP def2-SVP def2/J RIJCOSX Grid4 TightSCF
%maxcore 5000
%tddft
    Mode sTDDFT
    Ethresh 5.0
    maxcore 5000
end

%pal
  nprocs 6
  end
* xyz 0 1
   C       -0.98727        -0.16068        -3.15014
   C       -1.47218         0.34821        -4.32444
   C       -0.62872         1.06092        -5.18967
   C        0.68721         1.25607        -4.86894
   C        1.21912         0.74816        -3.66655
   C        2.57568         0.95590        -3.32588
   C        3.05686         0.44874        -2.14949
   C        2.20189        -0.29954        -1.28780
   C        0.88612        -0.50677        -1.58781
   C        0.36254         0.02081        -2.78972
   C        2.97646        -0.77795        -0.13153
   O        2.58728        -1.39398         0.83351
   C        4.39247        -0.39849        -0.42553
   C        4.38005         0.52683        -1.53940
   C        5.31756         1.48721        -1.81939
   C        6.49355         1.67624        -1.06895
   N        7.45345         1.87171        -0.46967
   C        5.16391         2.45955        -2.83033
   N        5.08179         3.27792        -3.63009
   C        5.38659        -1.00699         0.27718
   C        6.75499        -1.12935        -0.05080
   C        7.37133        -0.97280        -1.28544
   C        8.73409        -1.22340        -1.22718
   C        9.17407        -1.58530         0.06510
   S        7.89802        -1.62387         1.19178
   C       10.56511        -1.82893         0.01559
   C       11.00819        -1.61667        -1.30967
   C        9.87697        -1.20073        -2.12308
   C        9.88204        -0.81945        -3.43217
   C       11.06517        -0.78684        -4.20149
   N       12.02832        -0.75477        -4.82168
   C        8.69517        -0.41742        -4.08102
   N        7.71781        -0.10257        -4.59137
   C       12.35977        -1.87647        -1.47554
   C       12.96314        -2.28350        -0.28952
   S       11.82841        -2.31299         1.05589
   C       14.30660        -2.68862        -0.07333
   C       15.26516        -2.87056        -1.10340
   C       16.59414        -3.34673        -0.80825
   N       17.47586        -3.51819        -1.79977
   C       17.13320        -3.26612        -3.03861
   C       15.80620        -2.81546        -3.33443
   N       14.92917        -2.63127        -2.37898
   C       15.43199        -2.58180        -4.68312
   N       15.17833        -2.42320        -5.78803
   C       18.08526        -3.45202        -4.07138
   N       18.83695        -3.59826        -4.92271
   C       17.03717        -3.66569         0.49787
   C       16.09150        -3.45289         1.52570
   C       14.76103        -2.98315         1.23255
   N       14.02524        -2.87063         2.33903
   S       14.90632        -3.29989         3.61143
   N       16.25862        -3.65689         2.83306
   C       18.33185        -4.19478         0.72340
   C       18.88105        -4.54576         1.95366
   C       20.15055        -5.08433         1.81890
   C       20.57729        -5.14672         0.47326
   S       19.41497        -4.52329        -0.61827
   C       21.85986        -5.73468         0.44411
   C       22.25227        -6.04633         1.76967
   C       21.19386        -5.62937         2.67471
   C       21.17274        -5.71359         4.03508
   C       22.24864        -6.21764         4.79869
   N       23.10721        -6.60186         5.45314
   C       20.06158        -5.28027         4.79099
   N       19.16150        -4.93791         5.41348
   C       23.48810        -6.67106         1.84134
   C       24.05862        -6.84873         0.58520
   S       23.02730        -6.19765        -0.69952
   C       25.27574        -7.41538         0.15440
   C       26.24125        -8.11030         0.82897
   C       27.46603        -8.59532         0.20802
   C       27.95987        -8.25253        -1.02448
   C       29.16648        -8.75515        -1.55725
   N       30.13276        -9.12500        -2.05474
   C       27.38248        -7.33731        -1.93016
   N       26.99419        -6.59547        -2.71709
   C       28.13534        -9.47241         1.16074
   C       27.39262        -9.46967         2.37432
   C       27.78560       -10.18720         3.46729
   C       28.96301       -10.96374         3.39215
   C       29.42270       -11.72181         4.48685
   C       30.56301       -12.47213         4.38780
   C       31.29268       -12.49752         3.18978
   C       30.87403       -11.77117         2.10827
   C       29.70548       -10.98539         2.17597
   C       29.27453       -10.22762         1.06289
   C       26.20550        -8.61372         2.22752
   O       25.36993        -8.40616         3.08184
   H       -1.63193        -0.71103        -2.48058
   H       -2.50783         0.20358        -4.59322
   H       -1.02725         1.45537        -6.11227
   H        1.33985         1.80677        -5.53007
   H        3.20658         1.49903        -4.01206
   H        0.25203        -1.06870        -0.91827
   H        5.05938        -1.52797         1.17210
   H        6.83163        -0.73573        -2.18392
   H       12.90408        -1.79217        -2.39757
   H       18.34637        -4.40666         2.87518
   H       23.96763        -7.00580         2.74403
   H       25.44330        -7.28143        -0.90821
   H       27.20385       -10.16084         4.37671
   H       28.85621       -11.69843         5.40624
   H       30.90883       -13.05033         5.23155
   H       32.18946       -13.09559         3.12814
   H       31.43362       -11.78611         1.18450
   H       29.85861       -10.26944         0.15760
*
