# ORCA input file
# SCF done       -201.681300448306          0.000577092063
! CAM-B3LYP def2-SVP def2/J RIJCOSX Grid4 TightSCF
%maxcore 5000
%tddft
    Mode sTDDFT
    Ethresh 5.0
    maxcore 5000
end

%pal
  nprocs 6
  end
* xyz 0 1
   C       -2.79020        -7.04977         8.63500
   C       -1.67974        -7.30926         7.84474
   C       -1.81304        -7.68974         6.46416
   N       -0.70793        -7.93381         5.72991
   C        0.45537        -7.82171         6.28187
   C        0.58595        -7.44577         7.65172
   N       -0.43981        -7.20247         8.39171
   F        1.79315        -7.33866         8.19842
   F        1.52735        -8.06713         5.53612
   C       -3.07073        -7.82367         5.83614
   C       -4.19420        -7.55302         6.65072
   C       -4.04188        -7.16962         8.04051
   N       -5.22836        -6.96314         8.62716
   S       -6.38988        -7.21951         7.56053
   N       -5.48066        -7.60545         6.29888
   C       -3.18363        -8.21845         4.47354
   C       -4.36295        -8.39670         3.76028
   C       -4.12475        -8.80934         2.45737
   C       -2.74724        -8.94451         2.16981
   S       -1.75768        -8.55998         3.50858
   C       -2.61091        -9.38679         0.83454
   C       -3.90275        -9.53599         0.27624
   C       -4.89155        -9.16874         1.27838
   C       -6.24851        -9.16412         1.13801
   C       -6.87602        -9.53736        -0.06920
   N       -7.38473        -9.84054        -1.05108
   C       -7.11425        -8.78491         2.18587
   N       -7.82786        -8.48081         3.03040
   C       -3.87469        -9.99239        -1.03223
   C       -2.56998       -10.18899        -1.47549
   S       -1.36261        -9.79689        -0.25761
   C       -2.13985       -10.65768        -2.72526
   C       -0.80130       -10.81456        -3.10635
   C       -0.65014       -11.32860        -4.43558
   N        0.55326       -11.54457        -4.96306
   C        1.59334       -11.26007        -4.20613
   C        2.93592       -11.50096        -4.79090
   O        3.09047       -11.95104        -5.90668
   C        4.06783       -11.15374        -3.91487
   C        3.92680       -10.66820        -2.67689
   C        2.62243       -10.42114        -2.03915
   O        2.52119        -9.98583        -0.91144
   C        1.44236       -10.74289        -2.87963
   N        0.25578       -10.52940        -2.34854
   C       -1.87256       -11.56974        -5.07518
   S       -3.19266       -11.14809        -4.02178
   C       -2.01360       -12.08721        -6.37090
   C       -3.18861       -12.37930        -7.05758
   C       -2.92563       -12.89026        -8.31888
   C       -1.54112       -12.98514        -8.59630
   S       -0.56475       -12.44842        -7.30087
   C       -1.37911       -13.51474        -9.89651
   C       -2.66012       -13.75689       -10.44326
   C       -3.66891       -13.37513        -9.47184
   C       -5.02390       -13.45900        -9.60602
   C       -5.63728       -13.95278       -10.77698
   N       -6.14799       -14.35359       -11.72210
   C       -5.90249       -13.05899        -8.57718
   N       -6.61631       -12.73435        -7.74067
   C       -2.60558       -14.28392       -11.72537
   C       -1.29767       -14.44750       -12.16558
   S       -0.11840       -13.93781       -10.96939
   C       -0.88811       -14.96559       -13.42616
   C        0.47704       -15.08540       -13.76691
   C        0.90993       -15.61025       -15.03404
   N        2.23986       -15.70123       -15.30046
   C        3.07858       -15.31151       -14.40402
   C        2.65072       -14.78955       -13.14732
   N        1.39444       -14.68936       -12.86056
   F        3.53330       -14.39154       -12.23732
   F        4.37648       -15.40602       -14.67630
   C       -0.00041       -16.02806       -15.99406
   C       -1.35223       -15.92019       -15.68519
   C       -1.80574       -15.39385       -14.41283
   N       -3.13830       -15.38456       -14.33748
   S       -3.74881       -15.96614       -15.70004
   N       -2.38141       -16.26650       -16.46964
   H       -2.67792        -6.76806         9.66716
   H       -5.32741        -8.22913         4.20337
   H       -4.73244       -10.18315        -1.65227
   H        5.04589       -11.32209        -4.34508
   H        4.78619       -10.42761        -2.06567
   H       -4.16338       -12.21909        -6.63252
   H       -3.44933       -14.54748       -12.33632
   H        0.33553       -16.41927       -16.93822
*
