# ORCA input file
# SCF done       -207.034560333546          0.000952385106
! CAM-B3LYP def2-SVP def2/J RIJCOSX Grid4 TightSCF
%maxcore 5000
%tddft
    Mode sTDDFT
    Ethresh 5.0
    maxcore 5000
end

%pal
  nprocs 6
  end
* xyz 0 1
   C        0.31810       -17.66635        -4.79895
   C       -0.19744       -17.96896        -6.02807
   F        0.41960       -18.86003        -6.81611
   C       -1.38017       -17.35171        -6.48132
   F       -1.86319       -17.66880        -7.69073
   C       -2.03126       -16.43913        -5.69913
   C       -1.52506       -16.10624        -4.42793
   C       -0.32961       -16.73057        -3.96794
   C        0.19736       -16.41536        -2.69372
   C       -0.45196       -15.50434        -1.90373
   C       -1.64428       -14.88524        -2.37428
   C       -2.17771       -15.16679        -3.59813
   C       -2.14211       -13.95866        -1.34283
   O       -3.13630       -13.26004        -1.40992
   C       -1.19668       -14.04543        -0.22569
   C       -0.15668       -14.99184        -0.56562
   C        0.91721       -15.36426         0.20335
   C        1.21494       -14.88428         1.49573
   N        1.53154       -14.55325         2.54932
   C        1.89076       -16.30065        -0.20273
   N        2.71700       -17.05110        -0.47165
   C       -1.30213       -13.33127         0.94301
   C       -2.27814       -12.41860         1.35230
   C       -2.19980       -11.79482         2.61469
   C       -3.25506       -10.92581         2.86516
   O       -3.46641       -10.16360         3.96620
   C       -2.35649       -10.00830         4.82830
   C       -1.73588       -11.34277         5.20916
   S       -0.91743       -12.10226         3.76417
   C       -4.16825       -10.87952         1.80489
   S       -3.70994       -11.90453         0.47985
   C       -5.30828       -10.06482         1.79878
   C       -6.25009        -9.90916         0.77081
   C       -7.27385        -8.96882         1.11536
   N       -8.23852        -8.63549         0.26692
   C       -8.22351        -9.21616        -0.91542
   C       -9.27971        -8.81024        -1.87350
   O      -10.16624        -8.03273        -1.57935
   C       -9.17326        -9.42258        -3.20591
   C       -8.25360       -10.34009        -3.52127
   C       -7.23687       -10.85038        -2.58054
   O       -6.47582       -11.74194        -2.88219
   C       -7.22362       -10.18485        -1.24989
   N       -6.25759       -10.51509        -0.41807
   C       -7.12247        -8.40878         2.39291
   S       -5.70832        -9.04736         3.15954
   C       -7.97987        -7.41073         2.86814
   C       -7.89328        -6.62209         4.01271
   C       -8.88758        -5.62957         4.06543
   O       -9.02787        -4.68543         5.01941
   C       -7.90021        -4.47554         5.84481
   C       -7.41600        -5.75943         6.49923
   S       -6.67808        -6.86579         5.24466
   C       -9.74140        -5.66033         2.96246
   S       -9.33791        -6.96714         1.88099
   C      -10.82296        -4.78374         2.72655
   C      -11.45289        -4.56565         1.53908
   C      -12.83062        -4.00504         1.51148
   O      -13.40661        -3.44140         2.41294
   C      -13.35633        -4.35533         0.17397
   C      -14.61699        -4.19538        -0.32473
   C      -14.90157        -4.65686        -1.62991
   C      -13.87703        -5.29587        -2.38843
   C      -14.17869        -5.77013        -3.68088
   C      -15.43272        -5.61069        -4.19952
   C      -16.44237        -4.97323        -3.45151
   C      -16.18398        -4.50695        -2.19331
   F      -17.66387        -4.82876        -3.98577
   F      -15.71534        -6.06060        -5.43062
   C      -12.57750        -5.43974        -1.85101
   C      -12.32118        -4.95967        -0.59594
   C      -11.08808        -4.92056         0.18064
   C       -9.82653        -4.91680        -0.35018
   C       -8.67975        -4.57160         0.39509
   N       -7.73563        -4.24135         0.95931
   C       -9.53850        -5.17047        -1.70595
   N       -9.23486        -5.36466        -2.79567
   H        1.22440       -18.14845        -4.46704
   H       -2.93571       -15.97484        -6.05965
   H        1.10309       -16.90659        -2.37739
   H       -3.08476       -14.68109        -3.92424
   H       -0.52352       -13.48231         1.68286
   H       -2.75450        -9.50188         5.71096
   H       -1.60186        -9.36784         4.35330
   H       -2.49747       -12.03203         5.57421
   H       -0.96131       -11.21271         5.96118
   H       -9.90475        -9.08649        -3.92794
   H       -8.21607       -10.77909        -4.50929
   H       -8.23492        -3.76386         6.60333
   H       -7.08843        -4.02496         5.25883
   H       -8.24305        -6.28561         6.97659
   H       -6.63368        -5.55756         7.22698
   H      -11.23626        -4.28372         3.59604
   H      -15.38793        -3.72522         0.26671
   H      -13.41518        -6.25613        -4.26755
   H      -16.96827        -4.02246        -1.63295
   H      -11.81736        -5.94599        -2.42404
*
