# ORCA input file
# SCF done       -272.469155555148          0.000642109884
! CAM-B3LYP def2-SVP def2/J RIJCOSX Grid4 TightSCF
%maxcore 5000
%tddft
    Mode sTDDFT
    Ethresh 5.0
    maxcore 5000
end

%pal
  nprocs 6
  end
* xyz 0 1
   C        3.50466        -0.59974        -3.55140
   C        3.95511         0.51749        -2.90600
   F        5.07824         1.12479        -3.31387
   C        3.24835         1.04442        -1.80703
   F        3.71337         2.14159        -1.19192
   C        2.10041         0.44659        -1.36809
   C        1.61090        -0.70639        -2.01170
   C        2.32396        -1.23955        -3.12398
   C        1.85047        -2.39475        -3.78784
   C        0.70122        -2.99749        -3.35020
   C        0.00109        -2.46392        -2.23457
   C        0.43036        -1.34866        -1.57580
   C       -1.18327        -3.30036        -1.94711
   O       -1.98826        -3.09577        -1.06031
   C       -1.12862        -4.41378        -2.91652
   C       -0.02309        -4.17354        -3.82348
   C        0.25916        -4.85853        -4.97848
   C        1.34468        -4.55631        -5.82622
   N        2.21556        -4.36654        -6.55004
   C       -0.50689        -5.91434        -5.51606
   N       -1.09032        -6.75571        -6.03682
   C       -1.85860        -5.57897        -2.90931
   C       -2.99459        -5.94632        -2.17488
   C       -3.89102        -5.21382        -1.39634
   C       -4.92411        -5.96771        -0.87115
   C       -4.82545        -7.32405        -1.25265
   S       -3.48161        -7.63794        -2.26066
   C       -5.83569        -8.17431        -0.76184
   C       -6.81782        -7.55071         0.03233
  Si       -6.42199        -5.72950         0.22922
   C       -5.94811        -5.25227         1.96714
   C       -4.75601        -4.57677         2.24409
   C       -4.43420        -4.19337         3.53300
   C       -5.29597        -4.47718         4.57889
   C       -6.48262        -5.14673         4.32816
   C       -6.80292        -5.52720         3.03913
   C       -7.75007        -4.63069        -0.48071
   C       -8.02725        -3.38163         0.08140
   C       -9.01245        -2.56384        -0.43906
   C       -9.74796        -2.97653        -1.53754
   C       -9.49215        -4.21123        -2.11124
   C       -8.50607        -5.02614        -1.58914
   C       -7.78234        -8.46050         0.43388
   C       -7.55346        -9.75996        -0.01306
   S       -6.09360        -9.86294        -0.96089
   C       -8.35725       -10.90520         0.22875
   C       -7.94056       -12.20089        -0.15183
   C       -8.72397       -13.37224         0.10775
   N       -8.24611       -14.57793        -0.25751
   C       -7.09540       -14.66440        -0.84174
   C       -6.32381       -13.50377        -1.10770
   N       -6.74816       -12.33068        -0.76640
   F       -5.14193       -13.58844        -1.70960
   F       -6.65721       -15.87272        -1.18048
   C       -9.99210       -13.31869         0.72956
   C      -10.42718       -12.02185         1.09759
   C       -9.62080       -10.84267         0.86598
   N      -10.22623        -9.74165         1.31179
   S      -11.64473       -10.13413         1.95114
   N      -11.57538       -11.71752         1.70285
   C      -10.75431       -14.49014         0.97613
   C      -12.05852       -14.56058         1.46067
   C      -12.52124       -15.85417         1.63903
   C      -11.53546       -16.79630         1.28686
   S      -10.08472       -16.07864         0.70792
   C      -11.89435       -18.14406         1.48149
   C      -13.17117       -18.37222         2.02630
  Si      -14.07104       -16.73750         2.20970
   C      -14.55895       -16.28580         3.94966
   C      -13.78992       -15.41893         4.73133
   C      -14.17563       -15.07752         6.01413
   C      -15.34212       -15.59645         6.55015
   C      -16.12099       -16.45749         5.79445
   C      -15.73335       -16.79520         4.51205
   C      -15.48669       -16.65253         1.00032
   C      -16.55666       -15.77529         1.20252
   C      -17.60847       -15.70914         0.30876
   C      -17.61666       -16.52055        -0.81398
   C      -16.56745       -17.39704        -1.03556
   C      -15.51590       -17.46237        -0.14101
   C      -13.40281       -19.72471         2.21652
   C      -12.36306       -20.54387         1.78816
   S      -11.02195       -19.58889         1.18272
   C      -12.31833       -21.94836         1.88527
   C      -11.51558       -22.82586         1.21455
   C      -11.24295       -24.16834         1.78639
   O      -11.82646       -24.70305         2.70194
   C      -10.06931       -24.67170         1.04018
   C       -9.33357       -25.80024         1.25693
   C       -8.21692       -26.06122         0.43063
   C       -7.88245       -25.14194        -0.60578
   C       -6.76108       -25.40401        -1.41801
   C       -6.00929       -26.52685        -1.21347
   C       -6.34232       -27.43618        -0.19007
   C       -7.42304       -27.20976         0.61529
   F       -5.58662       -28.52899        -0.01100
   F       -4.94353       -26.77429        -1.98719
   C       -8.67010       -23.98600        -0.81382
   C       -9.75024       -23.75827        -0.00518
   C      -10.74251       -22.68631         0.00275
   C      -11.06018       -21.89397        -1.07153
   C      -12.20762       -21.07679        -1.11742
   N      -13.15720       -20.43658        -1.20580
   C      -10.33623       -21.89128        -2.27993
   N       -9.77338       -21.85073        -3.27954
   H        4.05674        -0.98975        -4.39222
   H        1.57121         0.86225        -0.52492
   H        2.41551        -2.77620        -4.62264
   H       -0.12226        -0.96262        -0.73270
   H       -1.49354        -6.36746        -3.55771
   H       -3.77252        -4.15858        -1.23588
   H       -4.07607        -4.34974         1.43615
   H       -3.50768        -3.67122         3.72203
   H       -5.04429        -4.17904         5.58614
   H       -7.15851        -5.37112         5.14078
   H       -7.73109        -6.04744         2.84993
   H       -7.45924        -3.05584         0.94121
   H       -9.20873        -1.60230         0.01264
   H      -10.51886        -2.33891        -1.94467
   H      -10.06455        -4.53808        -2.96722
   H       -8.31419        -5.98985        -2.03970
   H       -8.63966        -8.21608         1.03290
   H      -12.62950       -13.67521         1.67070
   H      -12.88013       -15.00651         4.31911
   H      -13.56581       -14.40364         6.59839
   H      -15.64448       -15.33010         7.55223
   H      -17.03300       -16.86384         6.20694
   H      -16.34921       -17.46196         3.92547
   H      -16.55906       -15.14291         2.07934
   H      -18.42530       -15.02484         0.48786
   H      -18.43955       -16.47079        -1.51198
   H      -16.56837       -18.03492        -1.90689
   H      -14.70799       -18.15592        -0.32398
   H      -14.31354       -20.12992         2.62052
   H      -12.94989       -22.38836         2.65150
   H       -9.59710       -26.48452         2.04900
   H       -6.49421       -24.71972        -2.20813
   H       -7.66444       -27.91529         1.39485
   H       -8.39259       -23.30130        -1.59953
*
