# ORCA input file
# SCF done       -222.373741719519          0.000641307498
! CAM-B3LYP def2-SVP def2/J RIJCOSX Grid4 TightSCF
%maxcore 5000
%tddft
    Mode sTDDFT
    Ethresh 5.0
    maxcore 5000
end

%pal
  nprocs 6
  end
* xyz 0 1
   C        2.11820        -2.09323         7.35859
   C        2.81431        -2.49851         8.46306
   F        3.62819        -1.64551         9.09564
   C        2.68631        -3.81583         8.94896
   F        3.38131        -4.18530        10.03144
   C        1.86314        -4.70982         8.32310
   C        1.13418        -4.32249         7.18203
   C        1.26228        -2.99096         6.68962
   C        0.54261        -2.57999         5.54380
   C       -0.27620        -3.47455         4.90649
   C       -0.39259        -4.80351         5.40341
   C        0.28356        -5.22829         6.51094
   C       -1.30367        -5.56353         4.53545
   O       -1.65142        -6.72216         4.68689
   C       -1.69023        -4.65530         3.44856
   C       -1.11933        -3.34639         3.72017
   C       -1.35334        -2.18432         3.03536
   C       -2.22240        -2.04748         1.93136
   N       -2.92145        -1.85949         1.04036
   C       -0.77096        -0.94255         3.37025
   N       -0.32530         0.09154         3.59084
   C       -2.37420        -5.01870         2.31886
   C       -2.92439        -6.26015         1.95475
   C       -3.47274        -6.47774         0.68504
   C       -3.93852        -7.76926         0.52520
   C       -3.77404        -8.54391         1.69784
   S       -3.01658        -7.69997         2.96626
   C       -4.25951        -9.84963         1.42928
   C       -4.71713        -9.90228         0.10041
   C       -4.53405        -8.59748        -0.51265
   C       -4.83626        -8.24635        -1.79523
   C       -5.38406        -9.17312        -2.70795
   N       -5.82116        -9.93729        -3.44274
   C       -4.60442        -6.94695        -2.29547
   N       -4.41127        -5.89453        -2.70575
   C       -5.18991       -11.16314        -0.25913
   C       -5.09890       -12.05818         0.78976
   S       -4.42689       -11.34338         2.23828
   C       -5.46652       -13.44440         0.73609
   C       -5.44338       -14.30507         1.78631
   C       -5.81165       -15.67660         1.60721
   C       -5.80941       -16.57459         2.65953
   C       -6.16268       -17.92320         2.48731
   N       -6.45043       -19.02515         2.34060
   C       -5.44894       -16.18118         3.95878
   N       -5.14923       -15.84500         5.01545
   C       -6.16701       -16.06123         0.27505
   C       -6.16060       -15.14113        -0.72517
   O       -5.83726       -13.83676        -0.51023
   C       -6.45261       -15.38650        -2.10602
   C       -6.74452       -16.56928        -2.75646
   C       -6.90410       -16.36853        -4.12776
   C       -6.73972       -15.02256        -4.50762
   S       -6.38689       -14.00736        -3.18823
   C       -6.89801       -14.92335        -5.91368
   C       -7.14924       -16.21340        -6.42122
   C       -7.18022       -17.15841        -5.31724
   C       -7.44156       -18.49414        -5.39675
   C       -7.70944       -19.11426        -6.63606
   N       -7.91821       -19.59967        -7.65350
   C       -7.45575       -19.32782        -4.25824
   N       -7.45850       -19.99903        -3.32940
   C       -7.31707       -16.22860        -7.79910
   C       -7.21086       -14.96010        -8.35335
   S       -6.86387       -13.74049        -7.13426
   C       -7.28135       -14.57431        -9.71006
   C       -7.76453       -15.26710       -10.77798
   C       -7.32771       -14.85167       -12.14430
   O       -6.77700       -13.81755       -12.43872
   C       -7.65552       -15.99368       -13.01835
   C       -7.34082       -16.18637       -14.33285
   C       -7.72409       -17.39289       -14.96002
   C       -8.42199       -18.38240       -14.20752
   C       -8.78900       -19.58911       -14.83641
   C       -8.48144       -19.80184       -16.15098
   C       -7.79352       -18.82150       -16.89488
   C       -7.42230       -17.64176       -16.31319
   F       -7.50420       -19.05777       -18.18079
   F       -8.83112       -20.94788       -16.74744
   C       -8.74235       -18.15095       -12.85012
   C       -8.37197       -16.96882       -12.26729
   C       -8.58324       -16.45366       -10.91612
   C       -9.56789       -16.87950       -10.06370
   C       -9.89741       -16.22831        -8.85929
   N      -10.20354       -15.71010        -7.88166
   C      -10.42570       -17.96621       -10.33886
   N      -11.14859       -18.83835       -10.51896
   H        2.22757        -1.08129         7.00098
   H        1.77613        -5.71425         8.70683
   H        0.66534        -1.56728         5.19583
   H        0.17437        -6.24170         6.86608
   H       -2.49467        -4.26289         1.55174
   H       -3.50473        -5.70791        -0.06569
   H       -5.58038       -11.43373        -1.22298
   H       -5.14530       -13.95817         2.76311
   H       -6.43376       -17.08493         0.07276
   H       -6.82603       -17.51896        -2.26077
   H       -7.45880       -17.11647        -8.38717
   H       -6.82111       -13.62265        -9.95953
   H       -6.80393       -15.43063       -14.88561
   H       -9.31864       -20.34833       -14.28250
   H       -6.89576       -16.90213       -16.89578
   H       -9.26014       -18.92042       -12.30003
*
