# ORCA input file
# SCF done       -201.733248302472          0.000455610925
! CAM-B3LYP def2-SVP def2/J RIJCOSX Grid4 TightSCF
%maxcore 5000
%tddft
    Mode sTDDFT
    Ethresh 5.0
    maxcore 5000
end

%pal
  nprocs 6
  end
* xyz 0 1
   C        6.69111        12.87065        -5.88984
   C        6.23636        12.29789        -7.05084
   C        7.05177        11.56151        -7.93181
   N        7.67437        10.93706        -8.66706
   C        4.91396        12.45718        -7.50950
   N        3.84510        12.58738        -7.90761
   C        8.08645        12.94610        -5.46850
   C        8.21386        14.00557        -4.52328
   C        9.41390        14.31601        -3.95298
   C       10.55587        13.55566        -4.29435
   C       10.43183        12.48774        -5.22930
   C        9.17792        12.19888        -5.81701
   C       11.57549        11.72818        -5.54769
   C       12.78479        12.00756        -4.97131
   C       12.90625        13.05952        -4.05160
   C       11.81590        13.81820        -3.72198
   C        6.88725        14.60256        -4.28063
   O        6.61161        15.56064        -3.59564
   C        5.92929        13.71781        -5.00366
   C        4.61767        13.74148        -4.62923
   C        3.62726        12.74621        -4.74772
   C        3.73730        11.40951        -5.10467
   C        2.55559        10.71191        -4.91001
   C        1.50987        11.49779        -4.39147
   S        2.00783        13.12886        -4.17461
   C        0.38472        10.72654        -4.09470
   C        0.57683         9.35811        -4.40271
   S        2.13893         9.02374        -5.09186
   C       -0.53981         8.67459        -3.96045
   C       -1.38270         9.63127        -3.36063
   N       -0.81704        10.87902        -3.48757
   C       -1.37968        12.16589        -3.17274
   C       -2.50920         9.28960        -2.56899
   C       -3.07012         9.92317        -1.45410
   C       -3.95789         9.06383        -0.71192
   N       -4.52433         9.44868         0.42865
   C       -4.24622        10.65860         0.86450
   C       -4.86450        11.09357         2.13583
   O       -5.57747        10.37140         2.80499
   C       -4.54721        12.47497         2.53566
   C       -3.73566        13.28443         1.84455
   C       -3.06155        12.88954         0.59946
   O       -2.29733        13.62554         0.00422
   C       -3.37439        11.52208         0.12636
   N       -2.80713        11.15008        -0.99962
   C       -4.10286         7.78802        -1.26260
   S       -3.17084         7.67588        -2.72036
   C       -4.73220         6.71470        -0.60900
   C       -4.93851         5.41672        -1.05089
   C       -5.41760         4.60101        -0.03362
   C       -5.56106         5.27168         1.19377
   S       -5.18073         6.94892         1.07219
   C       -5.87847         4.38976         2.22606
   C       -6.02872         3.05334         1.78149
   S       -5.76494         2.88718         0.06560
   C       -6.28803         2.27532         2.89467
   C       -6.21826         3.13900         4.00663
   N       -6.00066         4.42442         3.56905
   C       -6.05917         5.64637         4.32192
   C       -6.25800         2.71487         5.35885
   C       -5.46640         3.17462         6.37529
   C       -5.55640         2.79362         7.77113
   C       -6.64645         2.22947         8.38255
   C       -6.69608         1.89294         9.75040
   N       -6.78949         1.59348        10.85488
   C       -7.86585         1.94945         7.73218
   N       -8.89051         1.72243         7.26556
   C       -4.31865         3.19677         8.42729
   C       -3.50050         3.86411         7.47216
   C       -4.18381         3.89341         6.16893
   O       -3.73343         4.32719         5.12798
   C       -2.26956         4.35803         7.79311
   C       -1.79043         4.20645         9.11349
   C       -2.59964         3.53501        10.07482
   C       -3.87089         3.03225         9.71117
   C       -2.10675         3.38247        11.38658
   C       -0.87605         3.87015        11.73391
   C       -0.08133         4.53233        10.78662
   C       -0.52946         4.69756         9.50408
   H        9.49171        15.12560        -3.24262
   H        9.10762        11.37898        -6.51519
   H       11.47759        10.92040        -6.25810
   H       13.65468        11.41868        -5.22102
   H       13.86746        13.26544        -3.60486
   H       11.90311        14.62923        -3.01376
   H        4.33605        14.60889        -4.03907
   H        4.65199        10.94739        -5.42496
   H       -0.72593         7.62051        -4.00113
   H       -2.45359        12.15293        -3.34678
   H       -0.91710        12.91140        -3.81849
   H       -1.20937        12.43865        -2.13058
   H       -5.01804        12.80407         3.45229
   H       -3.52683        14.29103         2.18101
   H       -4.72347         5.09729        -2.05419
   H       -6.43726         1.21560         2.94093
   H       -6.49394         5.45603         5.30133
   H       -6.67119         6.37317         3.78563
   H       -5.05746         6.06162         4.44948
   H       -6.91516         1.87585         5.55358
   H       -1.66868         4.85921         7.04869
   H       -4.45607         2.52104        10.45915
   H       -2.72192         2.87275        12.11347
   H       -0.50787         3.74798        12.74150
   H        0.88742         4.91034        11.07747
   H        0.07762         5.20628         8.76940
*
