# ORCA input file
# SCF done       -222.940142925675          0.000753209343
! CAM-B3LYP def2-SVP def2/J RIJCOSX Grid4 TightSCF
%maxcore 5000
%tddft
    Mode sTDDFT
    Ethresh 5.0
    maxcore 5000
end

%pal
  nprocs 6
  end
* xyz 0 1
   C        1.07052        -0.64299        -1.69076
   C        1.37438        -0.42440        -0.36877
   C        2.03301         0.84974        -0.15536
   N        2.39987         1.22391         1.07323
   C        2.13721         0.40247         2.06444
   C        2.55455         0.84200         3.41353
   O        3.11725         1.90204         3.61443
   C        2.24046        -0.09868         4.50040
   C        1.62578        -1.27123         4.30938
   C        1.18768        -1.76366         2.99166
   O        0.62802        -2.83149         2.85855
   C        1.48040        -0.85608         1.85053
   N        1.11359        -1.25365         0.65911
   C        2.21023         1.57766        -1.33654
   S        1.56643         0.66964        -2.66385
   C        2.79938         2.87452        -1.51108
   C        3.33026         3.55780        -0.40261
   C        3.86643         4.80592        -0.58626
   C        3.89179         5.40726        -1.85755
   C        3.37967         4.73276        -2.95912
   C        2.84078         3.47687        -2.77838
   C        4.48935         6.71895        -1.73199
   C        4.83957         6.92212        -0.38556
   C        4.47372         5.71925         0.45047
   C        5.71293         5.07852         1.10268
   C        6.78236         4.69117         0.08842
   C        3.45132         6.07687         1.54553
   C        2.18229         6.70913         0.98701
   C        5.41937         8.10267         0.01375
   C        5.64383         9.11282        -0.92697
   C        5.28895         8.90105        -2.26110
   C        4.72163         7.71051        -2.67382
   C        6.23346        10.38701        -0.50136
   C        7.28778        10.40874         0.37271
   C        7.83294        11.63958         0.80585
   C        8.87375        11.94360         1.67019
   C        9.78256        11.01867         2.41287
   C        9.00405        10.10484         3.37125
   N        8.23964        10.91606         4.30287
   C       10.65711        10.20997         1.44005
   N       11.57940        11.11723         0.77591
   C        8.95554        13.38421         1.73360
   C        9.78802        14.19706         2.40864
   C        9.68615        15.68033         2.30758
   C        8.57301        16.17009         1.44356
   C        7.74979        15.34370         0.77087
   C        7.90785        13.94227         0.87149
   C        7.23803        12.87341         0.30605
   C        6.15855        12.81624        -0.60278
   C        5.67910        11.60786        -0.99595
   C       11.04675        16.19397         1.88442
   C       11.30594        16.76227         0.71103
   C       12.60375        17.27782         0.29652
   C       12.64158        18.29918        -0.66026
   C       13.84943        18.83555        -1.03694
   C       15.04757        18.34794        -0.48627
   C       15.02262        17.31668         0.44127
   C       13.80326        16.79450         0.82697
   C       16.15038        19.09453        -1.05295
   C       15.62944        20.04612        -1.94771
   C       14.12487        19.95198        -2.01525
   C       13.46422        21.27154        -1.57420
   C       13.88667        21.70580        -0.17585
   C       13.65110        19.59572        -3.43662
   C       14.26561        18.30245        -3.95831
   C       16.45234        20.91232        -2.62003
   C       17.83960        20.84027        -2.40402
   C       18.35186        19.88023        -1.51768
   C       17.52117        19.01081        -0.84286
   C       18.71571        21.75396        -3.08168
   C       18.38482        22.79712        -3.95194
   C       19.54330        23.52389        -4.43285
   N       19.41084        24.56546        -5.27520
   C       18.19502        24.88549        -5.63767
   C       18.03982        26.03617        -6.56695
   O       18.98127        26.67530        -6.98788
   C       16.65152        26.35137        -6.94395
   C       15.58554        25.67291        -6.50354
   C       15.67374        24.52933        -5.58323
   O       14.68903        23.92933        -5.19443
   C       17.04585        24.16495        -5.16620
   N       17.15611        23.14821        -4.34254
   C       20.72067        23.02454        -3.92961
   S       20.43615        21.70130        -2.88945
   H        0.58719        -1.49369        -2.12535
   H        2.54369         0.22241         5.48812
   H        1.41233        -1.93472         5.13681
   H        3.30077         3.09489         0.56991
   H        3.39769         5.18266        -3.94047
   H        2.43338         2.94088        -3.62431
   H        5.39372         4.19165         1.65277
   H        6.13351         5.78565         1.82098
   H        6.39265         3.96559        -0.62211
   H        7.63681         4.24931         0.59606
   H        7.12364         5.56356        -0.46559
   H        3.92030         6.76884         2.24825
   H        3.19560         5.16635         2.09022
   H        1.49548         6.94421         1.79674
   H        1.68352         6.02821         0.30083
   H        2.41181         7.62884         0.45246
   H        5.67325         8.27319         1.04993
   H        5.48405         9.67832        -2.98580
   H        4.46072         7.55947        -3.71089
   H        7.71398         9.47692         0.71333
   H       10.46779        11.62319         3.01571
   H        9.72088         9.42545         3.86683
   H        8.29318         9.49208         2.81445
   H        8.86206        11.48222         4.87002
   H        7.69932        10.32746         4.92677
   H       10.01354         9.65302         0.74161
   H       11.25476         9.48540         2.00209
   H       11.05615        11.81393         0.25382
   H       12.16430        10.61128         0.11972
   H       10.58472        13.81193         3.03041
   H        9.51798        16.06598         3.32737
   H        8.45516        17.24219         1.39066
   H        6.95400        15.73903         0.15568
   H        5.72258        13.73366        -0.97097
   H        4.84041        11.54733        -1.67398
   H       11.82958        16.05240         2.61643
   H       10.49927        16.91448         0.00550
   H       11.71702        18.66928        -1.08016
   H       15.93980        16.92677         0.85716
   H       13.77669        15.98203         1.53714
   H       12.37989        21.14538        -1.60192
   H       13.73030        22.04847        -2.29283
   H       13.61953        20.95055         0.56088
   H       13.39262        22.63712         0.09089
   H       14.96205        21.86314        -0.13120
   H       13.91211        20.41900        -4.10369
   H       12.56316        19.50204        -3.42846
   H       13.89811        18.09181        -4.95995
   H       14.00771        17.46449        -3.31357
   H       15.34966        18.38180        -4.00019
   H       16.05895        21.64740        -3.30249
   H       19.42057        19.83151        -1.36185
   H       17.93242        18.28159        -0.16107
   H       16.54298        27.18886        -7.62018
   H       14.58312        25.94026        -6.81039
   H       21.71734        23.36725        -4.11795
*
