# ORCA input file
# SCF done       -231.962406608640          0.000702919678
! CAM-B3LYP def2-SVP def2/J RIJCOSX Grid4 TightSCF
%maxcore 5000
%tddft
    Mode sTDDFT
    Ethresh 5.0
    maxcore 5000
end

%pal
  nprocs 6
  end
* xyz 0 1
   C        9.81292         0.43731        -5.22807
   C       10.09497         1.31578        -6.23646
   F        9.45878         2.50710        -6.28159
   C       11.02110         1.03361        -7.24788
   C       11.66701        -0.17238        -7.23296
   C       11.41746        -1.11691        -6.21709
   C       10.47875        -0.80362        -5.19121
   C       10.24155        -1.72005        -4.13984
   C       10.93066        -2.90119        -4.11665
   C       11.83475        -3.22900        -5.16646
   C       12.08167        -2.36580        -6.19283
   C       12.38644        -4.58165        -4.92588
   O       13.19857        -5.17468        -5.60441
   C       11.69186        -5.08197        -3.71884
   C       10.96193        -3.98417        -3.13550
   C       10.58991        -3.83482        -1.81726
   C        9.91227        -2.71173        -1.31244
   N        9.32624        -1.83661        -0.85299
   C       10.88923        -4.78065        -0.81938
   N       11.15446        -5.51046         0.02742
   C       11.77049        -6.42172        -3.40422
   C       10.86781        -7.17517        -2.63227
   C        9.60007        -6.71597        -2.32264
   C        8.67451        -7.36323        -1.53411
   C        8.99635        -8.62907        -0.86445
   C       10.13676        -9.31887        -1.09461
   S       11.39148        -8.78624        -2.13843
   C        7.90365        -8.86594         0.01069
   C        6.98048        -7.81336        -0.08189
   C        5.88146        -7.99174         0.78970
   C        5.99192        -9.14062         1.50284
   S        7.42540       -10.05416         1.15288
   C        7.42575        -6.88133        -1.06916
   C        6.83416        -5.64105        -1.42649
   C        7.01422        -5.05636        -2.63961
   C        6.73220        -3.70883        -3.03222
   C        6.95354        -3.35756        -4.35158
   C        6.76789        -2.03543        -4.78127
   C        6.90490        -1.45442        -6.03623
   C        7.24165        -2.17529        -7.29661
   C        5.96960        -2.43117        -8.12934
   N        5.06585        -3.30747        -7.40713
   C        8.30428        -1.46850        -8.15545
   N        9.05454        -2.45687        -8.91478
   C        6.57678        -0.05940        -5.88272
   C        6.53550         0.95700        -6.76474
   C        6.18857         2.34782        -6.35031
   C        5.84086         2.49966        -4.90621
   C        5.87764         1.47505        -4.03457
   C        6.24681         0.17825        -4.46575
   C        6.36096        -1.02982        -3.80954
   C        6.15294        -1.41020        -2.46174
   C        6.32526        -2.70335        -2.09244
   C        5.06769         2.83105        -7.23119
   C        5.27176         3.54570        -8.34120
   C        4.25347         4.01467        -9.24958
   C        2.91880         4.12394        -8.95383
   C        1.94294         4.57069        -9.84861
   C        2.27218         4.80581       -11.25853
   C        3.53009         4.80011       -11.75731
   S        4.91332         4.47432       -10.80639
   C        1.03295         5.05387       -11.91071
   C       -0.00107         5.00691       -10.98030
   C       -1.25817         5.26394       -11.56785
   C       -1.14636         5.49028       -12.90376
   S        0.47638         5.40937       -13.49843
   C        0.55160         4.75104        -9.66919
   C       -0.23415         4.78336        -8.50546
   C        0.18332         4.94274        -7.20838
   C       -0.73998         5.05995        -6.16371
   C       -0.50907         5.32387        -4.83288
   C       -1.61556         5.87150        -4.01323
   O       -2.79227         5.90260        -4.30457
   C       -0.97238         6.41896        -2.80020
   C       -1.52422         7.13185        -1.77725
   C       -0.69069         7.60138        -0.73567
   C        0.70513         7.31926        -0.77844
   C        1.53176         7.80156         0.25442
   C        0.97905         8.52587         1.27372
   C       -0.39091         8.81113         1.33581
   C       -1.20769         8.35021         0.34037
   F        1.76899         8.98985         2.26109
   C        1.24706         6.56502        -1.84644
   C        0.41931         6.12024        -2.84000
   C        0.68582         5.32500        -4.03812
   C        1.81945         4.56893        -4.23605
   C        1.95701         3.59628        -5.23673
   N        2.12913         2.76088        -6.00913
   C        2.95859         4.60497        -3.41124
   N        3.93822         4.59622        -2.81026
   H        9.09532         0.68992        -4.46355
   H       11.20483         1.76891        -8.01526
   H       12.38449        -0.41498        -8.00283
   H        9.52169        -1.46046        -3.38042
   H       12.78470        -2.62349        -6.97118
   H       12.58146        -6.95927        -3.88390
   H        9.32887        -5.75668        -2.73412
   H       10.34898       -10.26393        -0.61976
   H        5.05659        -7.30899         0.88284
   H        5.30989        -9.52969         2.23344
   H        6.23612        -5.15554        -0.66694
   H        7.42946        -5.67164        -3.42938
   H        7.27111        -4.11224        -5.05795
   H        7.65036        -3.15417        -7.02399
   H        6.28702        -2.83119        -9.10635
   H        5.45045        -1.48281        -8.29338
   H        5.46717        -4.23503        -7.32099
   H        4.18390        -3.39375        -7.89837
   H        8.94067        -0.85352        -7.50256
   H        7.82210        -0.80757        -8.88011
   H        9.60568        -3.03418        -8.28738
   H        9.69794        -1.99934        -9.55127
   H        6.74867         0.81787        -7.81449
   H        7.07290         2.96988        -6.55737
   H        5.55423         3.48941        -4.58621
   H        5.62536         1.63320        -2.99656
   H        5.86220        -0.66361        -1.73824
   H        6.17944        -2.99269        -1.06393
   H        4.07872         2.52603        -6.92292
   H        6.28705         3.78377        -8.63901
   H        2.60921         3.80763        -7.96852
   H        3.74484         5.01752       -12.79156
   H       -2.19595         5.27924       -11.04297
   H       -1.93216         5.70637       -13.60092
   H       -1.30453         4.74580        -8.67419
   H        1.23230         5.07514        -6.99787
   H       -1.79115         5.05609        -6.43641
   H       -2.58347         7.34060        -1.76167
   H        2.59126         7.59830         0.24067
   H       -0.77086         9.38710         2.16466
   H       -2.26694         8.55796         0.36579
   H        2.30801         6.37020        -1.85586
*
