# ORCA input file
# SCF done       -200.692460982153          0.000728304608
! CAM-B3LYP def2-SVP def2/J RIJCOSX Grid4 TightSCF
%maxcore 5000
%tddft
    Mode sTDDFT
    Ethresh 5.0
    maxcore 5000
end

%pal
  nprocs 6
  end
* xyz 0 1
   C      -13.52532       -11.83229         2.71537
   C      -13.30294       -12.70841         1.66222
   C      -12.10437       -12.70052         0.96542
   C      -11.08773       -11.82059         1.30770
   C      -11.30043       -10.93986         2.35397
   C      -12.52455       -10.93885         3.05962
   C      -12.47772        -9.89735         4.08181
   C      -13.46204        -9.63893         5.00515
   C      -14.66229       -10.36921         5.10951
   N      -15.66053       -10.91925         5.25355
   C      -13.40915        -8.63703         5.99335
   N      -13.43584        -7.83932         6.82083
   C      -11.22414        -9.19140         3.90510
   C      -10.42377        -9.95225         2.96675
   C       -9.05349        -9.93908         2.86524
   C       -8.21889        -9.25278         3.77062
   N       -7.51640        -8.76914         4.53955
   C       -8.32863       -10.65240         1.89613
   N       -7.69099       -11.15905         1.08437
   C      -10.94850        -7.94615         4.43448
   C      -10.02481        -7.00765         3.96652
   O       -9.36879        -7.18144         2.78788
   C       -8.56998        -6.11123         2.58777
   C       -8.72208        -5.20589         3.64225
   C       -9.65337        -5.77180         4.52097
   C      -10.11619        -5.20038         5.80841
   C       -8.02273        -3.90645         3.82423
   C       -7.72325        -6.09612         1.45094
   C       -7.66875        -7.15437         0.60281
   C       -6.82690        -7.34662        -0.53554
   C       -6.88218        -8.57469        -1.17047
   C       -6.05396        -8.85927        -2.26658
   C       -5.90565        -9.99888        -3.05274
   C       -6.54753       -11.33673        -2.96699
   C       -5.69423       -12.26324        -2.06547
   N       -4.53000       -12.73899        -2.79388
   C       -7.99996       -11.34889        -2.47716
   N       -8.57701       -12.65558        -2.75202
   C       -4.84169        -9.70974        -3.98898
   C       -4.28063       -10.48042        -4.93608
   C       -3.12976        -9.99349        -5.75428
   C       -2.70694        -8.59001        -5.46169
   C       -3.29613        -7.83005        -4.52116
   C       -4.36831        -8.34348        -3.75080
   C       -5.11861        -7.82996        -2.71411
   C       -5.09862        -6.57231        -2.06433
   C       -5.92486        -6.33963        -1.01513
   C       -3.42529       -10.26862        -7.20303
   C       -3.35340        -9.38951        -8.20716
   C       -3.68928        -9.73901        -9.55701
   O       -4.22372       -10.95129        -9.80051
   C       -4.49370       -11.03332       -11.13052
   C       -4.09264        -9.85197       -11.75605
   C       -3.58290        -9.01964       -10.74071
   C       -3.04462        -7.64755       -10.93551
   C       -4.18877        -9.50807       -13.19617
   C       -5.17664       -12.16600       -11.61431
   C       -5.60698       -13.15046       -10.76977
   C       -6.38663       -14.24537       -11.16191
   C       -7.00779       -15.11255       -10.28888
   C       -7.46582       -16.45231       -10.61168
   C       -7.67568       -16.98131       -11.85930
   C       -7.52210       -16.28257       -13.07421
   N       -7.42515       -15.77369       -14.09957
   C       -8.11514       -18.29973       -12.09769
   N       -8.46588       -19.36025       -12.36348
   C       -7.65824       -17.14922        -9.34429
   C       -7.44327       -16.23735        -8.28612
   C       -7.55282       -16.64687        -6.96817
   C       -7.87065       -17.97220        -6.70960
   C       -8.08608       -18.86751        -7.74644
   C       -7.98579       -18.46703        -9.07137
   C       -7.16891       -14.92838        -8.86012
   C       -7.27068       -13.73041        -8.19177
   C       -7.35964       -13.60296        -6.79552
   N       -7.37910       -13.40474        -5.66289
   C       -7.40606       -12.47018        -8.81345
   N       -7.59775       -11.42351        -9.24471
   H      -14.46328       -11.85517         3.24508
   H      -14.07900       -13.40497         1.38324
   H      -11.95589       -13.38867         0.14693
   H      -10.15970       -11.82497         0.75881
   H      -11.56880        -7.59591         5.24551
   H      -10.19095        -4.11729         5.73682
   H       -9.39800        -5.43574         6.59432
   H      -11.08068        -5.60786         6.09997
   H       -7.34693        -3.96260         4.67706
   H       -8.74328        -3.11334         4.02036
   H       -7.44760        -3.64545         2.94121
   H       -7.10010        -5.22582         1.32210
   H       -8.32695        -7.98589         0.82209
   H       -7.54901        -9.33000        -0.78890
   H       -6.54526       -11.78188        -3.96817
   H       -6.35439       -13.07429        -1.73122
   H       -5.35684       -11.70419        -1.19029
   H       -4.81651       -13.44423        -3.46556
   H       -3.86149       -13.16187        -2.16071
   H       -8.54507       -10.51762        -2.95732
   H       -8.03372       -11.21293        -1.39358
   H       -8.48921       -12.87750        -3.73933
   H       -9.56223       -12.66464        -2.51282
   H       -4.62923       -11.48266        -5.13306
   H       -2.28097       -10.65385        -5.49537
   H       -1.86421        -8.22115        -6.02688
   H       -2.94861        -6.82470        -4.33037
   H       -4.41625        -5.80975        -2.41135
   H       -5.91037        -5.38204        -0.51823
   H       -3.73398       -11.28288        -7.41805
   H       -3.04987        -8.36786        -8.04167
   H       -2.19184        -7.67073       -11.61354
   H       -2.72843        -7.21280        -9.99249
   H       -3.80507        -7.00689       -11.38023
   H       -4.51094       -10.36160       -13.78439
   H       -3.22212        -9.16790       -13.56558
   H       -4.90090        -8.69543       -13.33886
   H       -5.43014       -12.19360       -12.66323
   H       -5.32208       -13.06224        -9.73115
   H       -6.44972       -14.44812       -12.22161
   H       -7.38663       -15.96036        -6.15346
   H       -7.95090       -18.30782        -5.68688
   H       -8.33509       -19.89364        -7.52312
   H       -8.15828       -19.17717        -9.86311
*
