# ORCA input file
# SCF done       -193.459538790776          0.000938692546
! CAM-B3LYP def2-SVP def2/J RIJCOSX Grid4 TightSCF
%maxcore 5000
%tddft
    Mode sTDDFT
    Ethresh 5.0
    maxcore 5000
end

%pal
  nprocs 6
  end
* xyz 0 1
   C       -0.08752        -6.26345       -10.95563
   C        1.01662        -5.47204       -11.07779
   C        2.05560        -5.71207       -12.00404
   N        2.92227        -5.86868       -12.73815
   C        1.19253        -4.25937       -10.37453
   N        1.34340        -3.22623        -9.89922
   C       -0.46853        -7.35280       -11.84730
   C       -1.85036        -7.59762       -11.71329
   C       -2.49383        -8.54776       -12.48275
   C       -1.74408        -9.27556       -13.39770
   C       -0.36560        -9.04843       -13.52432
   C        0.27849        -8.08681       -12.75394
  Cl        0.54704        -9.96561       -14.64804
  Cl       -2.50859       -10.45815       -14.37609
   C       -2.41468        -6.71743       -10.67255
   O       -3.56326        -6.59672       -10.32548
   C       -1.22729        -6.02499       -10.08141
   C       -1.30583        -5.43514        -8.86982
   C       -0.19565        -5.02817        -8.06135
   N        0.93993        -5.69861        -8.06128
   C        1.75800        -5.03344        -7.20918
   C        1.09730        -3.85293        -6.65281
   C        2.01511        -3.12050        -5.77028
   O        1.82126        -2.08820        -5.16282
   C        3.24028        -3.94517        -5.81875
   C        3.03650        -5.10466        -6.71493
   N        4.15580        -5.86827        -6.77286
   C        5.01761        -5.27156        -5.98911
   C        4.51008        -4.06244        -5.35984
   C       -0.17906        -3.84756        -7.17210
   C       -1.25003        -2.93371        -7.00867
   C       -1.09923        -1.75652        -6.34819
   C       -2.11244        -0.78677        -6.16377
   N       -1.79560         0.46508        -5.68402
   C       -2.92945         1.20740        -5.62533
   C       -3.43368         2.46149        -5.32939
   C       -4.82399         2.38697        -5.55394
   N       -5.14804         1.11006        -5.97330
   C       -4.01125         0.37701        -6.05082
   C       -3.49687        -0.86293        -6.39792
   C       -5.81182         3.37719        -5.41431
   C       -5.57443         4.70744        -5.21202
   C       -6.62913         5.63390        -5.09948
   N       -7.90602         5.25292        -5.01213
   C       -8.62343         6.37795        -4.91941
   C       -7.76728         7.57418        -4.98378
   C       -8.57612         8.80288        -4.83467
   O       -8.19543         9.95124        -4.79870
   C       -9.94107         8.26965        -4.71168
   C       -9.93037         6.79429        -4.76706
   N      -11.18158         6.30066        -4.64506
   C      -11.95578         7.35772        -4.51823
   C      -11.24769         8.61454        -4.54965
   C       -6.48160         7.11153        -5.09964
   C       -5.25751         7.81762        -5.25610
   C       -5.17610         9.10960        -5.66570
   C       -3.91694         9.73171        -5.84765
   C       -3.71290        10.93573        -6.45565
   C       -2.44729        11.63063        -6.60937
   C       -1.20096        11.15907        -6.29043
   C       -0.00629        11.88904        -6.47209
   N        1.00194        12.42339        -6.59283
   C       -0.91661         9.87927        -5.76868
   N       -0.59839         8.85488        -5.35848
   C       -2.73188        12.93231        -7.20859
   C       -4.10717        13.01869        -7.48582
   C       -4.77994        11.76480        -7.07640
   O       -5.93821        11.47492        -7.26057
   C       -4.66405        14.13720        -8.07071
   C       -3.82916        15.20284        -8.38272
   C       -2.45871        15.12833        -8.10592
   C       -1.90133        13.99741        -7.52066
  Cl       -1.43747        16.45262        -8.49591
  Cl       -4.48158        16.61340        -9.11044
   H       -3.55366        -8.71713       -12.37559
   H        1.34002        -7.93875       -12.86922
   H       -2.29909        -5.31106        -8.45220
   H        6.00424        -5.67965        -5.85475
   H        5.05950        -3.43428        -4.68693
   H       -2.19822        -3.18669        -7.46074
   H       -0.12410        -1.51274        -5.94563
   H       -0.86127         0.75900        -5.45207
   H       -2.90207         3.32283        -4.98034
   H       -6.07795         0.81458        -6.21818
   H       -4.02631        -1.72223        -6.75531
   H       -6.84700         3.07529        -5.50665
   H       -4.56129         5.07660        -5.16790
   H      -13.01912         7.23788        -4.40304
   H      -11.69216         9.58603        -4.46190
   H       -4.34142         7.26271        -5.09009
   H       -6.07146         9.67381        -5.88382
   H       -3.05844         9.19310        -5.46505
   H       -5.72184        14.17873        -8.27740
   H       -0.84210        13.97750        -7.32365
*
