# ORCA input file
# SCF done       -222.403106829728          0.007305506428
! CAM-B3LYP def2-SVP def2/J RIJCOSX Grid4 TightSCF
%maxcore 5000
%tddft
    Mode sTDDFT
    Ethresh 5.0
    maxcore 5000
end

%pal
  nprocs 6
  end
* xyz 0 1
   C        7.55812        -6.81261         1.98613
   C        6.89297        -7.93152         2.40912
   C        7.27880        -9.24860         2.07777
   N        7.52509       -10.34208         1.83154
   C        5.78709        -7.94914         3.28592
   N        4.92817        -8.08087         4.03742
   C        8.84494        -6.81254         1.29416
   C        9.42522        -5.53473         1.40180
   C       10.66982        -5.25709         0.87348
   C       11.35175        -6.27473         0.21717
   C       10.77635        -7.54606         0.09731
   C        9.52402        -7.82338         0.63317
  Cl       11.62443        -8.79186        -0.72399
  Cl       12.90438        -5.97132        -0.44544
   C        8.50415        -4.63224         2.12605
   O        8.68282        -3.47952         2.43969
   C        7.27132        -5.43534         2.34617
   C        6.12588        -4.83642         2.75817
   C        4.81026        -5.38151         2.65871
   C        4.35184        -6.14240         1.61056
   C        2.99084        -6.51295         1.87313
   C        2.17755        -7.29997         1.05710
   N        1.49880        -7.99001         0.43673
   C        2.64090        -6.04462         3.12157
   C        3.75081        -5.33454         3.66648
   C        3.84565        -4.86247         4.96864
   C        3.04535        -5.39508         6.11202
   C        3.28002        -4.56344         7.19267
   C        4.22640        -3.58162         6.79785
   C        4.60539        -3.79526         5.47256
   C        4.70456        -2.55531         7.62420
   N        5.08942        -1.71396         8.30372
   C        2.39677        -6.63439         6.06733
   C        1.65829        -7.19783         7.08216
   C        0.96309        -8.40306         6.94107
   S        0.11773        -9.08190         8.32972
   C        0.77628        -9.18003         5.78669
   C       -0.02113       -10.28089         6.00656
   C       -0.60994       -11.38676         5.24826
   C       -0.46490       -11.64952         3.93211
   C       -1.19814       -12.78793         3.27470
   N       -0.74006       -14.07148         3.80175
   C        0.42380       -10.81378         3.04985
   N       -0.10860        -9.45867         2.91065
   C       -0.46248       -10.36503         7.35830
   C       -1.28928       -11.47426         7.49096
   S       -2.18015       -12.24778         8.73032
   C       -1.41000       -12.12065         6.23023
   C       -2.22260       -13.23663         6.29768
   C       -2.73425       -13.46131         7.57917
   C       -3.64341       -14.45993         7.96593
   C       -4.05255       -14.63926         9.26038
   C       -5.05422       -15.49177         9.76243
   C       -5.05948       -15.95476        11.06120
   C       -6.11432       -16.90156        11.20282
   C       -6.39715       -17.59412        12.39070
   N       -6.59968       -18.15928        13.36936
   C       -6.78958       -17.02283         9.99762
   C       -6.21238       -16.12720         9.06562
   C       -6.70317       -15.75938         7.82652
   C       -7.62166       -16.48912         6.93076
   C       -7.78867       -15.71162         5.80306
   C       -7.07035       -14.48553         5.96878
   C       -6.42443       -14.51217         7.18521
   C       -7.01345       -13.43816         5.04117
   N       -6.92440       -12.58414         4.27941
   C       -8.20920       -17.76048         7.14837
   C       -9.23560       -18.24714         6.39036
   C       -9.94901       -19.41104         6.73191
   C      -11.02542       -19.88690         6.02419
   C      -11.91979       -20.96158         6.40573
   C      -11.92605       -21.65547         7.59056
   C      -12.87137       -22.64990         7.92302
   N      -13.61113       -23.46162         8.25767
   C      -11.02109       -21.45808         8.65516
   N      -10.32925       -21.34377         9.56535
   C      -12.88645       -21.13840         5.32211
   C      -12.62080       -20.19377         4.31727
   C      -11.46322       -19.36220         4.70966
   O      -10.98105       -18.45869         4.06150
   C      -13.37499       -20.12099         3.16541
   C      -14.42635       -21.01511         3.00935
   C      -14.70040       -21.95930         4.00403
   C      -13.93574       -22.02928         5.16285
  Cl      -16.00283       -23.05903         3.79784
  Cl      -15.39360       -20.95592         1.59191
   H       11.10135        -4.27355         0.97156
   H        9.10900        -8.81128         0.51681
   H        6.23328        -3.81851         3.11310
   H        4.88795        -6.38179         0.71018
   H        1.66456        -6.11887         3.56104
   H        2.87763        -4.65444         8.18327
   H        5.28146        -3.16808         4.92578
   H        2.52804        -7.21165         5.16544
   H        1.58048        -6.69307         8.03518
   H        1.17058        -8.89762         4.83066
   H       -1.07801       -12.70876         2.18304
   H       -2.26854       -12.70521         3.49725
   H        0.26237       -14.16364         3.67184
   H       -1.18569       -14.82937         3.29543
   H        0.54742       -11.32087         2.07999
   H        1.41793       -10.72944         3.50487
   H       -1.06768        -9.49917         2.57900
   H        0.42478        -8.96140         2.20178
   H       -2.43119       -13.89988         5.48087
   H       -4.01892       -15.10026         7.17923
   H       -3.50672       -14.09412        10.02442
   H       -4.35452       -15.70491        11.83149
   H       -7.68705       -17.59519         9.86703
   H       -8.35159       -15.96334         4.92409
   H       -5.89880       -13.68844         7.62592
   H       -7.86127       -18.35531         7.98072
   H       -9.58434       -17.69008         5.52963
   H       -9.64949       -19.92317         7.63842
   H      -13.15079       -19.38618         2.40867
   H      -14.17720       -22.77393         5.90417
*
