# ORCA input file
# SCF done       -223.377024572685          0.001373489707
! CAM-B3LYP def2-SVP def2/J RIJCOSX Grid4 TightSCF
%maxcore 5000
%tddft
    Mode sTDDFT
    Ethresh 5.0
    maxcore 5000
end

%pal
  nprocs 6
  end
* xyz 0 1
   C       -2.23961        -5.36143         0.89975
   C       -1.30718        -6.25951         1.34145
   C       -0.00103        -6.37270         0.81147
   N        1.05897        -6.55670         0.41263
   C       -1.43059        -7.13456         2.43895
   N       -1.39963        -7.81971         3.36011
   C       -1.92600        -4.25095        -0.00441
   C       -2.99481        -3.33820        -0.00632
   C       -2.93378        -2.13308        -0.67631
   C       -1.77668        -1.83266        -1.38066
   C       -0.72362        -2.75144        -1.42370
   C       -0.78703        -3.95948        -0.73971
  Cl        0.69459        -2.38150        -2.32533
  Cl       -1.63361        -0.31975        -2.18489
   C       -4.10189        -3.88783         0.79385
   O       -5.19498        -3.39563         0.96964
   C       -3.62615        -5.19943         1.31077
   C       -4.55374        -5.97424         1.91726
   C       -4.51880        -7.29013         2.59043
   C       -4.37452        -6.80901         4.01567
   C       -5.37216        -6.26439         4.72158
   O       -6.63228        -6.27200         4.20455
   C       -7.57112        -5.27931         4.56649
   C       -7.31202        -3.93324         3.88485
   C       -6.24318        -3.02928         4.52977
   O       -4.95782        -3.63987         4.62060
   C       -4.57700        -4.20449         5.84540
   C       -5.11031        -5.64308         6.06628
   C       -6.04543        -1.85757         3.61381
   C       -6.36793        -0.58951         3.84887
   C       -6.09903         0.50214         2.92212
   C       -6.81225         1.67129         3.00199
   C       -6.53910         2.73095         2.10774
   C       -7.13173         3.97355         1.94359
   C       -8.32287         4.48865         2.68003
   C       -8.10751         5.89146         3.27551
   N       -8.75566         5.95816         4.57372
   C       -9.55916         4.42880         1.75731
   N      -10.75684         4.88385         2.44949
   C       -6.41935         4.64095         0.87694
   C       -6.58653         5.83843         0.28395
   C       -5.70418         6.29786        -0.82168
   C       -4.61834         5.33849        -1.20268
   C       -4.46117         4.14273        -0.60522
   C       -5.35063         3.74084         0.41632
   C       -5.44906         2.57975         1.15648
   C       -4.72923         1.36705         1.09699
   C       -5.06387         0.35837         1.94149
   C       -5.04098         7.61340        -0.46820
   C       -4.84526         8.58957        -1.33762
   C       -4.02392         9.81682        -1.07624
   C       -2.83653         9.77086        -1.99314
   C       -1.62205         9.29068        -1.71932
   O       -0.74273         9.29776        -2.77755
   C        0.60009         8.89452        -2.66987
   C        0.82796         7.38034        -2.78572
   C        0.50144         6.58746        -1.50611
   O       -0.89594         6.51502        -1.31282
   C       -1.41248         7.26090        -0.24222
   C       -1.19899         8.78090        -0.37110
   C        1.09948         5.21261        -1.55932
   C        0.48325         4.09871        -1.13691
   C        1.16748         2.84788        -1.10178
   C        0.70781         1.71019        -0.51466
   C        1.43950         0.46252        -0.35824
   C        2.61481         0.11350        -0.97136
   C        3.27788        -1.11561        -0.76963
   N        3.87580        -2.08751        -0.64472
   C        3.31598         0.90487        -1.90419
   N        3.94275         1.47957        -2.67658
   C        0.67254        -0.38394         0.54620
   C       -0.53786         0.25858         0.86187
   C       -0.59514         1.57300         0.18493
   O       -1.52093         2.35333         0.20391
   C       -1.48257        -0.32654         1.67947
   C       -1.22221        -1.58992         2.19549
   C       -0.00414        -2.21858         1.91476
   C        0.94713        -1.62904         1.09205
  Cl        0.33581        -3.75748         2.60045
  Cl       -2.41128        -2.38804         3.16240
   H       -3.76281        -1.44326        -0.64588
   H        0.05162        -4.63311        -0.79733
   H       -5.52144        -5.48839         1.99279
   H       -3.69099        -7.92864         2.29952
   H       -5.46495        -7.81316         2.45530
   H       -3.38381        -6.84055         4.43553
   H       -7.64485        -5.15306         5.65271
   H       -8.52319        -5.68156         4.20769
   H       -8.24489        -3.36649         3.87318
   H       -7.01726        -4.11630         2.85010
   H       -6.57269        -2.71074         5.53093
   H       -4.87087        -3.55560         6.68314
   H       -3.48481        -4.23677         5.79741
   H       -6.01252        -5.63710         6.67755
   H       -4.35414        -6.22316         6.59320
   H       -5.58872        -2.15128         2.68112
   H       -6.87671        -0.31648         4.76653
   H       -7.59367         1.78106         3.74086
   H       -8.51698         3.82867         3.52957
   H       -8.46613         6.66134         2.56897
   H       -7.03746         6.06219         3.43299
   H       -8.71309         6.89853         4.95179
   H       -9.73014         5.68968         4.48238
   H       -9.70957         3.38529         1.46864
   H       -9.34921         5.00106         0.83860
   H      -10.79246         5.89783         2.46650
   H      -11.58910         4.56040         1.97010
   H       -7.35934         6.53006         0.58923
   H       -6.33311         6.47727        -1.70681
   H       -3.94587         5.67443        -1.97729
   H       -3.65458         3.48202        -0.88526
   H       -3.92669         1.26910         0.38077
   H       -4.53472        -0.58048         1.90394
   H       -4.65998         7.67764         0.54210
   H       -5.22864         8.50324        -2.34606
   H       -3.73035         9.85344        -0.02718
   H       -4.61342        10.70861        -1.30437
   H       -3.01410        10.09467        -3.00824
   H        1.07763         9.28429        -1.76135
   H        1.08032         9.37555        -3.52883
   H        1.87465         7.21975        -3.04669
   H        0.20023         6.99376        -3.58953
   H        0.98104         7.09713        -0.65129
   H       -0.98394         6.91576         0.71219
   H       -2.48086         7.03778        -0.25228
   H       -0.15284         9.02763        -0.18086
   H       -1.79058         9.26805         0.40296
   H        2.11925         5.16831        -1.92022
   H       -0.53289         4.14609        -0.77529
   H        2.16266         2.84485        -1.52869
   H       -2.39941         0.19020         1.91327
   H        1.87040        -2.15002         0.89710
*
