# ORCA input file
# SCF done       -272.587289904336          0.000625381031
! CAM-B3LYP def2-SVP def2/J RIJCOSX Grid4 TightSCF
%maxcore 5000
%tddft
    Mode sTDDFT
    Ethresh 5.0
    maxcore 5000
end

%pal
  nprocs 6
  end
* xyz 0 1
   C       -6.58985        13.62494        -5.25528
   C       -7.86252        14.04795        -4.97946
   C       -8.17791        15.27810        -4.35811
   N       -8.59248        16.22789        -3.86042
   C       -9.11549        13.49224        -5.30187
   N      -10.21615        13.26266        -5.54045
   C       -5.42943        14.50009        -5.09849
   C       -4.28540        13.88585        -5.68330
   C       -3.07332        14.51224        -5.75181
   C       -2.94694        15.82410        -5.24608
   C       -4.07932        16.44242        -4.64579
   C       -5.31029        15.75632        -4.56034
   C       -3.96773        17.76216        -4.16370
   C       -2.78857        18.44529        -4.28978
   C       -1.66740        17.83417        -4.87285
   C       -1.74183        16.54791        -5.33329
   C       -4.65431        12.55404        -6.16334
   O       -3.94860        11.72899        -6.69925
   C       -6.10775        12.37025        -5.82653
   C       -6.56386        11.10760        -5.96148
   C       -7.81179        10.44427        -5.61725
   C       -7.72598         9.37003        -4.71961
   C       -8.89397         8.75962        -4.32300
   C      -10.14144         9.21068        -4.78144
   C      -10.21071        10.17319        -5.76043
   C       -9.03301        10.77083        -6.19433
   C      -11.19863         8.52890        -3.97081
   C      -10.40622         7.45875        -3.22429
   O      -10.83800         6.58551        -2.51137
   N       -9.07552         7.70265        -3.44518
   C       -8.02098         6.90095        -2.87438
   C       -7.42631         5.94027        -3.89971
   C      -11.75804         9.52568        -2.91391
   C      -12.55655        10.61070        -3.64756
   O      -13.57067        10.46238        -4.28142
   N      -11.88321        11.78667        -3.48155
   C      -10.72371        11.62779        -2.74177
   C       -9.72740        12.54614        -2.48626
   C       -8.56869        12.09621        -1.85328
   C       -8.51705        10.80022        -1.34329
   C       -9.56312         9.90852        -1.52752
   C      -10.63776        10.30493        -2.29460
   C       -7.36936        12.94756        -1.81384
   C       -7.39739        14.25279        -1.41409
   C       -6.20041        15.01234        -1.40021
   C       -5.94395        16.31034        -0.99594
   C       -6.95324        17.27503        -0.46465
   C       -6.77404        17.44841         1.05677
   N       -7.95164        18.06291         1.64304
   C       -6.92961        18.62809        -1.19367
   N       -6.84373        18.43517        -2.63490
   C       -4.52108        16.52168        -1.14398
   C       -3.72099        17.55829        -0.83404
   C       -2.25372        17.52813        -1.08232
   C       -1.74246        16.24749        -1.65954
   C       -2.54754        15.20843        -1.94544
   C       -3.93699        15.29257        -1.70096
   C       -4.96406        14.38181        -1.84386
   C       -4.98165        13.04468        -2.29887
   C       -6.14947        12.35375        -2.27380
   C       -1.51337        17.86146         0.19046
   C       -0.65152        18.86974         0.29036
   C        0.10449        19.26724         1.46994
   C        1.15995        20.16975         1.29513
   C        1.87074        20.58085         2.40064
   C        1.54680        20.12716         3.68385
   C        0.51008        19.23849         3.86078
   C       -0.20106        18.80784         2.75136
   C        2.44934        20.80348         4.66519
   C        3.35235        21.64630         3.75880
   O        4.24889        22.38057         4.10913
   N        2.94050        21.46409         2.47309
   C        3.55541        22.12432         1.34770
   C        4.47762        21.18271         0.57831
   C        1.69452        21.75407         5.61986
   C        1.03898        22.87616         4.80144
   O        0.22720        22.75772         3.91621
   N        1.56350        24.05324         5.24455
   C        2.50114        23.87159         6.24887
   C        3.24018        24.82474         6.90847
   C        4.14134        24.39652         7.89508
   C        4.25200        23.01993         8.16947
   C        3.49363        22.07588         7.50150
   C        2.61057        22.50463         6.53228
   C        4.99827        25.26132         8.65989
   C        5.15410        26.61004         8.76546
   C        6.16372        27.20896         9.64376
   C        6.98036        26.56626        10.53628
   C        7.92639        27.22305        11.35445
   N        8.71573        27.68024        12.05127
   C        7.02076        25.18398        10.82280
   N        7.13685        24.08788        11.14810
   C        6.14195        28.65188         9.44220
   C        5.10538        28.96110         8.52017
   C        4.43958        27.72414         8.08402
   O        3.49029        27.67776         7.32866
   C        4.82718        30.24329         8.14164
   C        5.59531        31.30020         8.67652
   C        6.64283        31.00071         9.59491
   C        6.90376        29.66311         9.96889
   C        7.40656        32.06246        10.12235
   C        7.14786        33.35689         9.76283
   C        6.11519        33.65028         8.85921
   C        5.35586        32.64386         8.32716
   H       -2.22799        14.01684        -6.20654
   H       -6.12457        16.26639        -4.07563
   H       -4.83680        18.20606        -3.69749
   H       -2.71423        19.46788        -3.94732
   H       -0.74363        18.38795        -4.95747
   H       -0.88212        16.07342        -5.78366
   H       -5.79307        10.42721        -6.32646
   H       -6.76590         9.07011        -4.32872
   H      -11.15766        10.47996        -6.17510
   H       -9.06404        11.49630        -6.99088
   H      -12.03259         8.11261        -4.53782
   H       -8.46948         6.33644        -2.05247
   H       -7.24905         7.56500        -2.47337
   H       -8.19585         5.26502        -4.26546
   H       -6.63596         5.35203        -3.44166
   H       -7.01351         6.48602        -4.74509
   H      -12.38200         8.97324        -2.20819
   H      -12.11461        12.63306        -3.97954
   H       -9.81114        13.56906        -2.81703
   H       -7.64119        10.48847        -0.79365
   H       -9.51600         8.91608        -1.10621
   H       -8.32112        14.69491        -1.07120
   H       -7.94540        16.83977        -0.61667
   H       -5.84191        18.00526         1.25261
   H       -6.66759        16.45499         1.50234
   H       -8.03367        19.03083         1.35256
   H       -7.89447        18.04784         2.65483
   H       -6.05640        19.21431        -0.88930
   H       -7.82949        19.19049        -0.89560
   H       -7.57543        17.79337        -2.93421
   H       -7.01614        19.31860        -3.10628
   H       -4.09605        18.46425        -0.38103
   H       -2.03581        18.32983        -1.80484
   H       -0.67805        16.20128        -1.83291
   H       -2.14398        14.29620        -2.36168
   H       -4.06984        12.58769        -2.65676
   H       -6.19042        11.33154        -2.62276
   H       -1.71956        17.20103         1.01943
   H       -0.46207        19.47682        -0.58788
   H        1.39617        20.53637         0.30787
   H        0.24529        18.88606         4.84667
   H       -1.02328        18.12397         2.88897
   H        3.04601        20.10478         5.25791
   H        4.13125        22.96036         1.75354
   H        2.76797        22.51500         0.69662
   H        5.27595        20.83181         1.22766
   H        4.91993        21.70578        -0.26510
   H        3.92786        20.32027         0.20846
   H        0.93183        21.18330         6.15709
   H        1.33335        24.95068         4.84706
   H        3.13385        25.86893         6.67266
   H        4.95107        22.69153         8.92438
   H        3.60085        21.02705         7.73310
   H        5.67042        24.68890         9.28812
   H        4.03025        30.44618         7.44156
   H        7.70549        29.47517        10.66445
   H        8.19917        31.83200        10.81878
   H        7.73704        34.16301        10.17352
   H        5.92487        34.67771         8.58706
   H        4.56003        32.86318         7.63056
*
