# ORCA input file
# SCF done       -214.709185154480          0.000498503161
! CAM-B3LYP def2-SVP def2/J RIJCOSX Grid4 TightSCF
%maxcore 5000
%tddft
    Mode sTDDFT
    Ethresh 5.0
    maxcore 5000
end

%pal
  nprocs 6
  end
* xyz 0 1
   C        1.61049         4.26711         7.28693
   C        0.95824         5.44135         7.55446
   C        0.31485         5.71701         8.77763
   N       -0.24248         5.97483         9.74759
   C        0.93471         6.54203         6.67342
   N        0.94465         7.49188         6.02893
   C        1.90252         3.21830         8.25726
   C        2.98320         2.43081         7.76159
   C        3.50367         1.39415         8.48097
   C        2.95157         1.08587         9.74466
   C        1.86040         1.85821        10.23798
   C        1.34546         2.93079         9.47440
   C        1.31493         1.53532        11.49721
   C        1.82356         0.50274        12.23679
   C        2.89901        -0.25597        11.75105
   C        3.45087         0.02951        10.53185
   C        3.37057         2.91891         6.42534
   O        4.27788         2.53443         5.72347
   C        2.35929         3.95952         6.08228
   C        2.21678         4.36666         4.79915
   C        1.10700         5.06008         4.19830
   C        1.34907         5.94166         3.13423
   C        0.29899         6.61559         2.56137
   C       -1.01216         6.41516         3.03263
   C       -1.26775         5.50464         4.04944
   C       -0.20893         4.83765         4.62665
   C       -1.90280         7.29601         2.31195
   C       -1.14137         8.04930         1.40296
   C        0.31322         7.63584         1.44722
   C        1.23994         8.81917         1.76493
   C        0.85191         9.53072         3.05615
   C        0.64282         7.00041         0.07548
   C        2.00127         6.32115        -0.03538
   C       -1.73656         8.98209         0.59144
   C       -3.12275         9.18134         0.67360
   C       -3.87130         8.42435         1.58565
   C       -3.27504         7.48893         2.40378
   C       -3.77152        10.13914        -0.18083
   S       -5.51494        10.30112        -0.20528
   C       -5.51124        11.53672        -1.43102
   C       -4.20245        11.81460        -1.79264
   C       -3.24119        11.02505        -1.08920
   S       -1.64671        11.45894        -1.62833
   C       -2.40245        12.62187        -2.71169
   N       -3.67343        12.69106        -2.69057
   C       -6.72869        12.07715        -1.92248
   C       -6.77305        13.01596        -2.89277
   C       -7.95239        13.58910        -3.48794
   C       -7.77826        14.52253        -4.52474
   C       -8.87088        15.06969        -5.15075
   C      -10.16978        14.73108        -4.72465
   C      -10.35773        13.81863        -3.69435
   C       -9.25511        13.24997        -3.09329
   C      -11.12343        15.49383        -5.49584
   C      -10.41616        16.30990        -6.39569
   C       -8.92857        16.05684        -6.29378
   C       -8.13569        17.33854        -6.00335
   C       -8.64854        18.06815        -4.76668
   C       -8.50624        15.40634        -7.63375
   C       -7.04859        14.97833        -7.73526
   C      -11.07691        17.15264        -7.25315
   C      -12.48034        17.18360        -7.23836
   C      -13.17425        16.39722        -6.30022
   C      -12.51228        15.54776        -5.44221
   C      -13.24949        18.01402        -8.11979
   C      -12.95377        18.43075        -9.38217
   C      -13.79156        19.32932       -10.16383
   C      -14.76146        20.16526        -9.67588
   C      -15.53025        21.03366       -10.47862
   N      -16.19417        21.75483       -11.07651
   C      -15.10806        20.31023        -8.31579
   N      -15.43666        20.50627        -7.23273
   C      -13.36088        19.25514       -11.55319
   C      -12.23010        18.39506       -11.62660
   C      -11.90400        17.88115       -10.28353
   O      -10.99460        17.12396       -10.01879
   C      -11.59595        18.13383       -12.80670
   C      -12.07382        18.73457       -13.99253
   C      -13.21033        19.59143       -13.92951
   C      -13.84679        19.84151       -12.69224
   C      -13.68140        20.18194       -15.11995
   C      -13.05987        19.94110       -16.31481
   C      -11.94003        19.09819       -16.37527
   C      -11.45753        18.50803       -15.23886
   H        4.32794         0.81537         8.09129
   H        0.51374         3.49507         9.86701
   H        0.48924         2.12453        11.86850
   H        1.40031         0.26504        13.20125
   H        3.28783        -1.06760        12.34769
   H        4.27912        -0.55106        10.15252
   H        3.02380         4.07902         4.13160
   H        2.36771         6.11684         2.82422
   H       -2.27648         5.32944         4.39189
   H       -0.39279         4.11155         5.40613
   H        1.20247         9.52487         0.93174
   H        2.26475         8.45662         1.85310
   H       -0.15843         9.92818         2.98731
   H        1.53317        10.35749         3.24348
   H        0.89636         8.85084         3.90310
   H        0.57627         7.78977        -0.67655
   H       -0.13482         6.26527        -0.14962
   H        2.80867         7.00556         0.21029
   H        2.14923         5.97964        -1.05780
   H        2.05736         5.45584         0.61927
   H       -1.14874         9.55789        -0.10625
   H       -4.93823         8.58626         1.64242
   H       -3.86822         6.91787         3.10177
   H       -1.78432        13.22509        -3.34738
   H       -7.62805        11.67494        -1.47822
   H       -5.82813        13.36811        -3.28529
   H       -6.77434        14.80254        -4.80698
   H      -11.35353        13.55930        -3.36659
   H       -9.40120        12.53754        -2.29647
   H       -8.20270        17.99723        -6.87148
   H       -7.08611        17.08310        -5.85329
   H       -9.68655        18.36675        -4.89607
   H       -8.05456        18.96080        -4.58400
   H       -8.58383        17.42680        -3.89012
   H       -8.73098        16.11595        -8.43213
   H       -9.14103        14.53046        -7.79159
   H       -6.37553        15.81884        -7.58810
   H       -6.86516        14.57139        -8.72740
   H       -6.81619        14.20582        -7.00724
   H      -10.53079        17.80541        -7.91212
   H      -14.25353        16.44768        -6.27765
   H      -13.06180        14.93869        -4.74029
   H      -14.22113        18.29544        -7.72843
   H      -10.73859        17.47756       -12.83421
   H      -14.70934        20.48866       -12.67880
   H      -14.54304        20.83131       -15.06818
   H      -13.42764        20.39923       -17.22074
   H      -11.46197        18.91877       -17.32674
   H      -10.59580        17.85770       -15.27890
*
