# ORCA input file
# SCF done       -211.782970343887          0.000935061734
! CAM-B3LYP def2-SVP def2/J RIJCOSX Grid4 TightSCF
%maxcore 5000
%tddft
    Mode sTDDFT
    Ethresh 5.0
    maxcore 5000
end

%pal
  nprocs 6
  end
* xyz 0 1
   C        5.11295         2.84735         1.97926
   C        4.54128         1.77105         1.35615
   C        5.04902         0.45654         1.43103
   N        5.41827        -0.62958         1.45684
   C        3.35374         1.82896         0.59611
   N        2.38595         1.81623        -0.02154
   C        6.29423         2.82271         2.82938
   C        6.45101         4.10660         3.42702
   C        7.48241         4.38517         4.27733
   C        8.42519         3.37514         4.57004
   C        8.28081         2.09061         3.96913
   C        7.20036         1.82981         3.09598
   C        9.23434         1.09404         4.26120
   C       10.27921         1.35144         5.10646
   C       10.41891         2.61546         5.69901
   C        9.51108         3.60558         5.43739
   C        5.36925         4.99910         2.98046
   O        5.17732         6.14141         3.33413
   C        4.60391         4.21138         1.97045
   C        3.76768         4.74534         1.04521
   C        3.26356         6.08395         1.05526
   C        2.78993         6.76660         2.13618
   C        2.25346         8.03360         1.68218
   C        1.64328         9.01087         2.47713
   N        1.08777         9.82390         3.06840
   C        2.38393         8.11667         0.32448
   C        3.01467         6.90825        -0.14587
   C        3.40031         6.63343        -1.43002
   C        3.02722         7.39139        -2.65590
   C        3.78543         6.90936        -3.67956
   C        4.62863         5.84633        -3.17193
   C        4.37541         5.66208        -1.83923
   C        5.56152         5.13964        -3.94438
   N        6.32570         4.56636        -4.57995
   C        2.02175         8.40230        -2.70494
   C        1.99581         9.40721        -3.60916
   C        1.08417        10.50800        -3.53435
   C        1.06200        11.49685        -4.51479
   F        1.87215        11.37060        -5.58001
   C        0.25807        12.64206        -4.46061
   F        0.41262        13.53307        -5.45879
   C       -0.61328        12.91045        -3.41219
   C       -0.59022        11.94010        -2.38276
   C        0.21954        10.76752        -2.44077
   N        0.00932        10.08989        -1.30127
   N       -0.85716        10.81171        -0.64320
   N       -1.25554        11.90756        -1.21871
   C       -1.33690        10.43040         0.64905
   C       -1.39974        14.11151        -3.28111
   C       -1.64411        14.75432        -2.10690
   C       -2.29522        16.01722        -2.40030
   C       -2.74033        16.91682        -1.42125
   N       -3.10454        17.64215        -0.61029
   C       -2.40639        16.16377        -3.75550
   C       -1.92974        14.95330        -4.37220
   C       -2.16364        14.57057        -5.66577
   C       -2.46048        15.44518        -6.82397
   C       -2.81749        14.63027        -7.86493
   C       -2.75822        13.25700        -7.42019
   C       -2.31991        13.21896        -6.12237
   C       -3.09802        12.14845        -8.20972
   N       -3.37723        11.24193        -8.85487
   C       -2.20727        16.84168        -6.86256
   C       -2.56036        17.66997        -7.88345
   C       -2.21736        19.03970        -7.86105
   C       -2.50737        19.93831        -8.84908
   C       -2.15688        21.34647        -8.87269
   C       -1.49233        22.04785        -7.89866
   C       -1.17715        23.42034        -7.98713
   N       -0.88958        24.53176        -7.99208
   C       -1.02772        21.52225        -6.67523
   N       -0.61959        21.17275        -5.65989
   C       -2.64123        21.90363       -10.13090
   C       -3.28592        20.87086       -10.87015
   C       -3.23250        19.61351       -10.10682
   O       -3.68772        18.54034       -10.44461
   C       -3.84112        21.09844       -12.09633
   C       -3.77584        22.39535       -12.65247
   C       -3.13250        23.43462       -11.92015
   C       -2.56719        23.16863       -10.65204
   C       -3.07189        24.72531       -12.48394
   C       -3.61979        24.97898       -13.71188
   C       -4.25297        23.95492       -14.43202
   C       -4.32944        22.69057       -13.91365
   H        7.57767         5.36571         4.71982
   H        7.12151         0.85094         2.64989
   H        9.12206         0.12206         3.80405
   H       11.00449         0.58184         5.32341
   H       11.24981         2.80108         6.36290
   H        9.61352         4.58094         5.88992
   H        3.45392         4.13248         0.20894
   H        2.75835         6.42846         3.15339
   H        2.14186         8.97629        -0.26774
   H        3.75592         7.20872        -4.70986
   H        4.90148         4.98770        -1.19236
   H        1.24844         8.37408        -1.95371
   H        2.72829         9.45047        -4.40302
   H       -1.67437         9.39503         0.62302
   H       -2.15907        11.09195         0.91031
   H       -0.54186        10.51808         1.39323
   H       -1.37564        14.42039        -1.12366
   H       -2.90883        16.96570        -4.26058
   H       -3.06100        14.92485        -8.86798
   H       -2.22517        12.34072        -5.51211
   H       -1.65715        17.26185        -6.03024
   H       -3.11474        17.29830        -8.73110
   H       -1.67247        19.38243        -6.99045
   H       -4.32404        20.29711       -12.63576
   H       -2.08747        23.97779       -10.12503
   H       -2.58332        25.51035       -11.92562
   H       -3.56818        25.97080       -14.13534
   H       -4.67977        24.17284       -15.39957
   H       -4.81562        21.89806       -14.46354
*
