# ORCA input file
# SCF done       -183.795149089114          0.000466690402
! CAM-B3LYP def2-SVP def2/J RIJCOSX Grid4 TightSCF
%maxcore 5000
%tddft
    Mode sTDDFT
    Ethresh 5.0
    maxcore 5000
end

%pal
  nprocs 6
  end
* xyz 0 1
   C       -2.42072         3.69679        -2.25605
   C       -2.54781         3.02796        -1.03543
   C       -1.94293         3.57045         0.09951
   C       -1.22142         4.76145         0.01705
   C       -1.11024         5.40300        -1.19698
   C       -1.71015         4.87206        -2.33662
   O       -2.02904         2.96836         1.31126
   C       -2.72599         1.82906         1.44834
   C       -2.68133         1.33470         2.85919
   C       -3.36500         1.20836         0.41767
   C       -3.31055         1.77504        -0.94583
   O       -3.85972         1.27171        -1.90834
   C       -4.14180        -0.00457         0.57667
   C       -4.24971        -1.02012        -0.34373
   C       -5.15815        -2.00707         0.05800
   C       -5.75983        -1.72051         1.29248
   S       -5.19377        -0.25701         1.96422
   C       -6.67163        -2.75607         1.60769
   C       -6.64897        -3.70693         0.56876
   C       -5.66321        -3.28292        -0.41995
   C       -5.24265        -3.97777        -1.51376
   C       -5.70623        -5.27589        -1.82373
   N       -6.02447        -6.34810        -2.07363
   C       -4.24396        -3.48628        -2.38299
   N       -3.42232        -3.11453        -3.09082
   C       -7.54500        -4.75127         0.76399
   C       -8.24236        -4.61205         1.95839
   S       -7.77656        -3.16203         2.84254
   C       -9.21539        -5.48687         2.47361
   C       -9.77307        -6.60603         1.84028
   C      -10.71555        -7.31323         2.66844
   N      -11.26768        -8.45615         2.25577
   C      -10.96972        -8.86276         1.04182
   C      -11.49788       -10.18475         0.61990
   O      -12.06218       -10.93769         1.38369
   C      -11.24510       -10.53082        -0.79041
   C      -10.54803        -9.75946        -1.63092
   C       -9.96326        -8.45987        -1.25485
   O       -9.40994        -7.73856        -2.05630
   C      -10.14253        -8.08481         0.17058
   N       -9.53650        -6.99484         0.58564
   C      -10.91727        -6.70452         3.91479
   S       -9.90336        -5.30125         4.05762
   C      -11.79250        -7.11680         4.93540
   C      -12.72459        -8.14608         4.87144
   C      -13.43009        -8.27362         6.06231
   C      -13.02622        -7.35051         7.04655
   S      -11.79544        -6.30450         6.49793
   C      -13.77375        -7.58907         8.22426
   C      -14.65048        -8.65998         7.99525
   C      -14.49422        -9.10200         6.61978
   C      -15.24042       -10.03488         5.96492
   C      -16.27875       -10.75297         6.59807
   N      -17.13722       -11.33509         7.08649
   C      -15.09496       -10.30528         4.58582
   N      -15.03626       -10.51204         3.46013
   C      -15.42387        -8.97628         9.11890
   C      -15.15865        -8.14917        10.18481
   S      -13.91573        -6.96271         9.80549
   C      -15.71602        -8.27035        11.51676
   C      -16.00047        -7.19962        12.30988
   O      -16.48690        -7.30759        13.55663
   C      -16.70800        -8.53143        14.09633
   C      -17.19314        -8.58599        15.40305
   C      -17.43141        -9.81118        15.98606
   C      -17.19322       -10.98931        15.28195
   C      -16.71608       -10.93590        13.99273
   C      -16.46566        -9.70472        13.38036
   C      -15.94940        -9.64516        12.00575
   O      -15.71991       -10.64353        11.34857
   C      -15.84262        -5.76560        11.91567
   H       -2.89696         3.25798        -3.11949
   H       -0.76411         5.15648         0.91039
   H       -0.55304         6.32505        -1.26290
   H       -1.61547         5.38498        -3.28111
   H       -1.83566         1.79441         3.36482
   H       -2.58348         0.25293         2.89186
   H       -3.59035         1.61413         3.39050
   H       -3.69443        -1.03157        -1.26291
   H       -7.72073        -5.57707         0.09805
   H      -11.66156       -11.47706        -1.10874
   H      -10.38262       -10.05305        -2.65882
   H      -12.84120        -8.75098         3.99005
   H      -16.14344        -9.77204         9.16709
   H      -17.37151        -7.66293        15.93154
   H      -17.80570        -9.85582        16.99745
   H      -17.38395       -11.94220        15.75070
   H      -16.52145       -11.82920        13.41922
   H      -16.12112        -5.61166        10.87670
   H      -14.80953        -5.44546        12.04625
   H      -16.47239        -5.15477        12.55801
*
