# ORCA input file
# SCF done       -182.780104516358          0.000523201333
! CAM-B3LYP def2-SVP def2/J RIJCOSX Grid4 TightSCF
%maxcore 5000
%tddft
    Mode sTDDFT
    Ethresh 5.0
    maxcore 5000
end

%pal
  nprocs 6
  end
* xyz 0 1
   C        1.91089         2.89829         4.65596
   C        1.86551         2.85315         6.02309
   C        2.68972         1.96555         6.73078
   C        3.54721         1.13509         6.06203
   C        3.61797         1.15381         4.65438
   C        4.49438         0.29043         3.95808
   C        4.53589         0.33704         2.59120
   C        3.71386         1.25820         1.87719
   C        2.85180         2.09577         2.52449
   C        2.78301         2.05820         3.93589
   C        3.98344         1.13614         0.43246
   O        3.44206         1.71019        -0.48311
   C        5.13726         0.19401         0.33449
   C        5.30069        -0.44203         1.62592
   C        5.82468        -1.68864         1.85039
   C        6.31753        -2.51766         0.82229
   N        6.69605        -3.22714         0.00269
   C        5.85342        -2.30918         3.11524
   N        5.91695        -2.84802         4.12673
   C        5.87817         0.14303        -0.80364
   C        7.20633        -0.32208        -0.96677
   C        7.80556        -0.71319        -2.15260
   C        9.13303        -1.09408        -1.97318
   C        9.56367        -0.94663        -0.63972
   S        8.33881        -0.36441         0.38493
   C       10.91249        -1.35826        -0.54784
   C       11.34063        -1.78308        -1.81997
   C       10.23628        -1.62079        -2.75824
   C       10.24464        -1.90294        -4.09214
   C       11.38820        -2.41869        -4.73803
   N       12.32058        -2.83568        -5.25908
   C        9.11864        -1.68648        -4.91509
   N        8.21201        -1.50444        -5.59221
   C       12.65732        -2.23346        -1.82635
   C       13.24166        -2.15304        -0.56933
   S       12.13362        -1.50502         0.63115
   C       14.54193        -2.51320        -0.13919
   C       15.49802        -3.09319        -0.90840
   C       16.78350        -3.44709        -0.42600
   C       17.33038        -3.22828         0.83127
   C       18.61985        -3.73504         0.93860
   C       19.07169        -4.35140        -0.24472
   S       17.90069        -4.29148        -1.48707
   C       20.37932        -4.84411        -0.02463
   C       20.75716        -4.53663         1.30350
   C       19.67142        -3.81493         1.94257
   C       19.63817        -3.29807         3.20361
   C       20.72756        -3.36853         4.09965
   N       21.59786        -3.38555         4.84490
   C       18.50175        -2.62218         3.69722
   N       17.57582        -2.07584         4.09621
   C       22.01706        -5.01052         1.63888
   C       22.62329        -5.68247         0.58522
   S       21.59236        -5.69464        -0.85679
   C       23.88504        -6.29556         0.44894
   C       24.83238        -6.60257         1.38721
   C       26.14118        -7.15389         1.07070
   C       26.71378        -7.26183        -0.17118
   C       27.99646        -7.80217        -0.40383
   N       29.02611        -8.23511        -0.66935
   C       26.14455        -6.83973        -1.39074
   N       25.76597        -6.50993        -2.42426
   C       26.78939        -7.52143         2.32421
   C       25.92517        -7.16949         3.39801
   C       26.26383        -7.38096         4.70323
   C       27.51375        -7.96677         5.00180
   C       27.92315        -8.20421         6.32849
   C       29.13898        -8.77396         6.59326
   C       29.99768        -9.13069         5.54278
   C       29.62957        -8.91363         4.24279
   C       28.38497        -8.32797         3.93366
   C       28.00356        -8.09769         2.59164
   C       24.68827        -6.57788         2.86594
   O       23.74101        -6.20308         3.52494
   H        1.27860         3.58017         4.10647
   H        1.19465         3.50135         6.56666
   H        2.64126         1.94235         7.80910
   H        4.18122         0.44700         6.60164
   H        5.12323        -0.37977         4.52351
   H        2.22871         2.77991         1.96792
   H        5.42087         0.58372        -1.68438
   H        7.27144        -0.74763        -3.08499
   H       13.17446        -2.60155        -2.69289
   H       14.75471        -2.30885         0.90070
   H       15.29286        -3.32285        -1.94411
   H       16.80946        -2.72238         1.62218
   H       22.48451        -4.89815         2.59993
   H       24.11466        -6.57042        -0.57400
   H       25.58655        -7.10024         5.49608
   H       27.25716        -7.92688         7.13242
   H       29.44559        -8.95271         7.61301
   H       30.95372        -9.57853         5.76899
   H       30.28820        -9.18576         3.43108
   H       28.68553        -8.38764         1.80849
*
