# ORCA input file
# SCF done       -197.622209424774          0.000996516900
! CAM-B3LYP def2-SVP def2/J RIJCOSX Grid4 TightSCF
%maxcore 5000
%tddft
    Mode sTDDFT
    Ethresh 5.0
    maxcore 5000
end

%pal
  nprocs 6
  end
* xyz 0 1
   C        0.79421         4.92777         1.06740
   C        1.50470         3.98367         1.76095
   C        2.91377         3.90108         1.76643
   N        4.05410         3.78039         1.81510
   C        0.95308         2.98093         2.58655
   N        0.58489         2.14610         3.28382
   C        1.37180         5.99953         0.26494
   C        0.32460         6.83337        -0.20549
   C        0.55138         7.94109        -0.98703
   C        1.87415         8.23927        -1.32661
   C        2.91333         7.39824        -0.85893
   C        2.68392         6.28017        -0.06520
   S        4.46349         7.95169        -1.40549
   C        3.72514         9.27642        -2.23607
   C        2.37978         9.31034        -2.11545
   C       -0.95998         6.30649         0.27051
   O       -2.06356         6.78413         0.06567
   C       -0.65088         5.08533         1.02783
   C       -1.57224         4.21618         1.54485
   C       -2.97757         4.28159         1.55684
   C       -3.75163         3.25049         2.10156
   C       -5.10663         3.51323         2.03073
   C       -5.37795         4.76733         1.43530
   S       -3.97326         5.60067         0.94878
   C       -6.78382         4.94881         1.41635
   C       -7.39685         3.81587         1.99539
   C       -6.36337         2.87774         2.39881
   C       -6.53339         1.66319         2.99403
   C       -5.44365         0.83197         3.33201
   N       -4.56348         0.14756         3.59774
   C       -7.80895         1.14960         3.31394
   N       -8.83888         0.72232         3.57957
   C       -8.78545         3.90712         2.01970
   C       -9.21878         5.10100         1.46835
   S       -7.91250         6.12340         0.91086
   C      -10.55806         5.55530         1.32109
   N      -10.76360         6.75105         0.79518
   N      -11.94548         7.26381         0.61479
   C      -13.06869         6.64032         0.92848
   C      -12.99399         5.33595         1.50774
   C      -11.68755         4.77383         1.71751
   N      -11.85503         3.58761         2.26289
   O      -13.16777         3.42177         2.38500
   N      -13.87296         4.45634         1.93938
   C      -14.30162         7.30163         0.67603
   C      -15.58315         6.81904         0.87939
   C      -16.54060         7.75838         0.50737
   C      -15.97061         8.95717         0.02584
   S      -14.26641         8.92393         0.02121
   C      -17.02091         9.84400        -0.32309
   C      -18.24940         9.20418        -0.06731
   C      -17.98836         7.87220         0.45344
   C      -18.91862         6.93151         0.78349
   C      -18.57019         5.65541         1.27570
   N      -18.29754         4.61938         1.68276
   C      -20.29978         7.18719         0.64527
   N      -21.41881         7.41243         0.53606
   C      -19.34724         9.98483        -0.40650
   C      -18.97321        11.21731        -0.92064
   S      -17.22729        11.41214        -0.95101
   C      -19.80336        12.28178        -1.34727
   C      -21.10436        12.23411        -1.73686
   C      -21.99423        11.15057        -2.10657
   C      -21.64206         9.96821        -2.70360
   C      -22.57305         9.02021        -3.17911
   N      -23.28531         8.22004        -3.58977
   C      -20.31697         9.60175        -3.00861
   N      -19.25759         9.26815        -3.30027
   C      -23.35685        11.65553        -1.99172
   C      -23.30976        13.06182        -1.80186
   C      -21.90547        13.49592        -1.72752
   O      -21.46983        14.61937        -1.62872
   C      -24.44670        13.82733        -1.69695
   C      -25.68181        13.17638        -1.77140
   C      -25.71623        11.77038        -1.94364
   C      -24.56805        10.99528        -2.05736
   S      -27.34682        11.18276        -1.99412
   C      -27.95753        12.78824        -1.79491
   C      -26.99163        13.72733        -1.69143
   H       -0.26758         8.55634        -1.32603
   H        3.50985         5.67153         0.26254
   H        4.35461         9.95939        -2.77275
   H        1.75361        10.06040        -2.56349
   H       -1.19095         3.31853         2.01688
   H       -3.31098         2.36390         2.52227
   H       -9.46418         3.16892         2.40819
   H      -15.77659         5.83804         1.27550
   H      -20.37268         9.70050        -0.25546
   H      -19.37378        13.27789        -1.30009
   H      -24.38417        14.89587        -1.56140
   H      -24.63974         9.92672        -2.17627
   H      -29.02014        12.93235        -1.76618
   H      -27.18348        14.77707        -1.56235
*
