# ORCA input file
# SCF done       -276.926272535250          0.000552784663
! CAM-B3LYP def2-SVP def2/J RIJCOSX Grid4 TightSCF
%maxcore 5000
%tddft
    Mode sTDDFT
    Ethresh 5.0
    maxcore 5000
end

%pal
  nprocs 6
  end
* xyz 0 1
   C       -3.31801        -0.03680        -3.73492
   C       -2.04853         0.07899        -3.23189
   C       -0.98165        -0.77603        -3.58245
   N       -0.07284        -1.43629        -3.81901
   C       -1.59003         1.07309        -2.34022
   N       -1.11518         1.84972        -1.64005
   C       -3.73070        -1.00855        -4.74009
   C       -5.05362        -0.70681        -5.14012
   C       -5.72809        -1.43577        -6.08933
   C       -5.06603        -2.52342        -6.66718
   C       -3.74509        -2.82332        -6.25612
   C       -3.06209        -2.08162        -5.30046
   S       -3.11574        -4.21116        -7.09096
   C       -4.61373        -4.36615        -7.96998
   C       -5.53937        -3.42905        -7.65563
  Br       -4.81504        -5.75122        -9.21809
   C       -5.54605         0.46294        -4.38681
   O       -6.62318         0.99684        -4.55251
   C       -4.46529         0.80974        -3.43351
   C       -4.49971         1.66765        -2.36906
   C       -5.50117         2.54663        -1.90144
   C       -6.72594         2.91483        -2.41095
   C       -7.41610         3.84443        -1.61341
   C       -6.69844         4.17568        -0.42848
   S       -5.16077         3.36694        -0.37703
   C       -7.18486         5.05313         0.52474
   C       -6.43873         5.44391         1.72427
   C       -5.88231         4.49028         2.57091
   C       -5.24272         4.87606         3.73398
   C       -5.12912         6.21661         4.07834
   C       -5.65433         7.16940         3.21016
   C       -6.30293         6.79316         2.05385
   C       -4.47502         6.64905         5.35080
   C       -8.47166         5.57873         0.28608
   C       -9.18925         5.25771        -0.89740
   C       -8.68448         4.41492        -1.86971
   C       -9.41322         4.11738        -3.10730
   C      -10.74461         3.71389        -3.06649
   C      -11.42402         3.42165        -4.23318
   C      -10.80111         3.53092        -5.46964
   C       -9.47518         3.94889        -5.50779
   C       -8.78731         4.23610        -4.34687
   C      -11.53631         3.22631        -6.73804
   S      -10.73004         6.08503        -0.94288
   C      -10.42879         6.79790         0.63002
   C       -9.20628         6.42295         1.13611
   C      -11.40660         7.64209         1.23444
   C      -11.26359         8.24685         2.50896
   C      -12.31435         9.04938         3.10221
   N      -12.10749         9.62424         4.29634
   C      -10.97892         9.43460         4.93389
   C       -9.95079         8.62160         4.36104
   N      -10.11819         8.07313         3.18343
   C       -8.72435         8.41481         5.03919
   N       -7.73980         8.26298         5.60551
   C      -10.78336        10.06132         6.18854
   N      -10.59352        10.55050         7.20731
   C      -13.54789         9.27976         2.44610
   C      -13.65421         8.73516         1.15123
   C      -12.61553         7.92604         0.56716
   N      -12.95200         7.49765        -0.64990
   S      -14.40883         8.05640        -1.02431
   N      -14.69860         8.86316         0.33178
   C      -14.62791        10.01336         3.02163
   C      -14.80251        10.36889         4.33756
   C      -15.97307        11.11358         4.57279
   C      -16.73307        11.30036         3.38747
   S      -15.95441        10.55309         2.01466
   C      -17.92845        11.99825         3.36063
   C      -18.66277        12.23405         2.11212
   C      -18.96165        11.18453         1.24921
   C      -19.63760        11.42062         0.06725
   C      -20.02465        12.70499        -0.29132
   C      -19.71893        13.75301         0.57116
   C      -19.05146        13.52466         1.75709
   C      -20.74732        12.97239        -1.57513
   C      -18.39343        12.49749         4.59434
   C      -17.63055        12.30331         5.77626
   C      -16.42317        11.63131         5.80456
   C      -15.65920        11.44220         7.04177
   C      -16.27845        10.92564         8.17775
   C      -15.55659        10.72419         9.33780
   C      -14.20291        11.03413         9.39937
   C      -13.59018        11.56098         8.26725
   C      -14.30391        11.76110         7.10309
   C      -13.41822        10.82487        10.65600
   S      -18.40073        13.03304         7.15740
   C      -19.77972        13.50363         6.17879
   C      -19.59871        13.18227         4.85662
   C      -20.89444        14.19381         6.72386
   C      -21.30563        14.24600         8.01718
   C      -20.93575        13.46168         9.17893
   C      -20.60247        12.13338         9.17887
   C      -20.29748        11.39838        10.34133
   N      -20.01574        10.76413        11.25579
   C      -20.62165        11.33229         8.01655
   N      -20.69602        10.63026         7.11140
   C      -21.26783        14.25360        10.35612
   C      -22.05162        15.36361         9.94853
   C      -22.18514        15.35574         8.47693
   O      -22.82188        16.11415         7.78351
   C      -22.56295        16.27020        10.84540
   C      -22.27817        16.07913        12.20168
   C      -21.48301        14.97552        12.59485
   C      -20.97333        14.05205        11.69060
   S      -21.24764        14.93809        14.31543
   C      -22.21155        16.38174        14.48294
   C      -22.68414        16.86984        13.31170
  Br      -22.50024        17.10812        16.18744
   H       -6.73575        -1.17596        -6.37364
   H       -2.05872        -2.35420        -5.01992
   H       -6.51621        -3.37743        -8.10067
   H       -3.61773         1.67171        -1.73857
   H       -7.11803         2.51002        -3.32550
   H       -5.98370         3.44103         2.33510
   H       -4.83504         4.12013         4.38957
   H       -5.56051         8.21680         3.45644
   H       -6.69266         7.54541         1.38307
   H       -4.12898         5.79433         5.92588
   H       -5.18478         7.21650         5.95079
   H       -3.62508         7.29678         5.14008
   H      -11.23990         3.60161        -2.11367
   H      -12.45357         3.09746        -4.18104
   H       -8.97599         4.04663        -6.46105
   H       -7.76402         4.57798        -4.39805
   H      -11.81294         4.15320        -7.24135
   H      -12.44437         2.66325        -6.53753
   H      -10.90810         2.65383        -7.41754
   H       -8.85876         6.73704         2.10137
   H      -14.11577        10.08618         5.11223
   H      -18.68289        10.17681         1.51743
   H      -19.86832        10.59181        -0.58635
   H      -20.00651        14.76025         0.30490
   H      -18.80116        14.35341         2.40393
   H      -20.95873        12.04708        -2.10455
   H      -20.14553        13.61179        -2.22036
   H      -21.68727        13.48779        -1.38267
   H      -17.32135        10.64514         8.13872
   H      -16.05202        10.31098        10.20460
   H      -12.53837        11.80390         8.29536
   H      -13.81568        12.18747         6.23879
   H      -13.86875        10.05110        11.27287
   H      -13.39348        11.74809        11.23593
   H      -12.39254        10.54734        10.42460
   H      -20.34185        13.38357         4.10561
   H      -21.44615        14.82147         6.03062
   H      -23.16503        17.10108        10.51267
   H      -20.36783        13.22801        12.03064
   H      -23.29378        17.75122        13.23146
*
