# ORCA input file
# SCF done       -188.781276287787          0.000890129412
! CAM-B3LYP def2-SVP def2/J RIJCOSX Grid4 TightSCF
%maxcore 5000
%tddft
    Mode sTDDFT
    Ethresh 5.0
    maxcore 5000
end

%pal
  nprocs 6
  end
* xyz 0 1
   C        3.55574         3.78376        -1.24137
   C        3.76744         5.07871        -0.84201
   C        4.97913         5.55444        -0.30927
   N        5.92148         5.99127         0.18189
   C        2.80082         6.09617        -0.96108
   N        2.05752         6.96436        -1.07318
   C        4.59135         2.77612        -1.44050
   C        4.05987         1.73860        -2.26175
   C        4.81684         0.67062        -2.64720
   C        6.15888         0.58346        -2.21124
   C        6.69189         1.61091        -1.38063
   C        5.88662         2.71160        -1.00532
   C        8.02947         1.50802        -0.94868
   C        8.80584         0.44368        -1.31882
   C        8.28037        -0.56711        -2.13685
   C        6.98533        -0.49806        -2.57392
   C        2.64460         2.03007        -2.55890
   O        1.88575         1.40525        -3.26376
   C        2.32130         3.23942        -1.74919
   C        1.01307         3.54668        -1.50572
   C        0.46324         4.34295        -0.48514
   C        1.01291         4.78035         0.71846
   C        0.11497         5.55925         1.49801
   S        0.91095         6.06223         2.94458
   C        2.34960         5.18055         2.39880
   N        2.23423         4.57763         1.27154
   C        3.58627         5.19037         3.20589
   C       -1.14375         5.71938         0.92839
   S       -1.19823         4.87109        -0.59712
   C       -2.27688         6.43137         1.39747
   C       -3.48004         6.46222         0.65131
   C       -4.64070         7.18282         1.07956
   N       -5.72864         7.20777         0.28584
   C       -5.73375         6.54418        -0.82276
   C       -4.60357         5.77941        -1.21884
   N       -3.52777         5.76841        -0.50108
   F       -4.61454         5.06498        -2.33799
   F       -6.81284         6.60947        -1.59139
   C       -4.68412         7.89894         2.29839
   C       -3.50463         7.83596         3.07565
   C       -2.32127         7.12928         2.62733
   N       -1.34605         7.19762         3.52994
   S       -1.85681         8.03386         4.80582
   N       -3.33292         8.35247         4.28938
   C       -5.85491         8.59516         2.69816
   C       -5.98261         9.60251         3.65886
   C       -7.32514        10.01995         3.81328
   S       -7.43471        11.28178         4.97944
   C       -5.65456        11.16821         5.15114
   N       -5.09227        10.28802         4.42084
   C       -4.95791        12.06674         6.09245
   C       -8.25006         9.36485         2.99943
   S       -7.39832         8.21184         1.98676
   C       -9.61780         9.66485         3.02394
   C      -10.63810         9.15733         2.26049
   C      -12.03282         9.54526         2.32402
   C      -12.61078        10.43002         3.19952
   C      -13.98380        10.75271         3.20376
   N      -15.08848        11.06070         3.26479
   C      -11.94346        11.13758         4.22043
   N      -11.47906        11.74928         5.07506
   C      -12.74055         8.81055         1.27860
   C      -11.80872         7.97039         0.60361
   C      -10.48066         8.14260         1.20882
   O       -9.46018         7.55107         0.90411
   C      -12.17621         7.16683        -0.43618
   C      -13.52482         7.16416        -0.85840
   C      -14.46594         7.99595        -0.18616
   C      -14.05282         8.81924         0.88760
   C      -15.80895         7.98328        -0.61333
   C      -16.20494         7.18946        -1.65561
   C      -15.27677         6.37322        -2.31849
   C      -13.96488         6.36057        -1.92803
   H        4.39828        -0.10155        -3.27542
   H        6.31145         3.47411        -0.37115
   H        8.43063         2.29008        -0.32075
   H        9.82982         0.37503        -0.98312
   H        8.90639        -1.40043        -2.41905
   H        6.57525        -1.27345        -3.20439
   H        0.29523         3.05148        -2.15261
   H        3.37794         5.51476         4.22145
   H        4.30825         5.87450         2.75695
   H        4.03412         4.19873         3.21252
   H       -5.14432        13.10724         5.83007
   H       -3.89080        11.86671         6.05808
   H       -5.32590        11.90759         7.10514
   H       -9.87331        10.42255         3.75636
   H      -11.44653         6.54407        -0.93202
   H      -14.79069         9.43924         1.37118
   H      -16.52007         8.61416        -0.10040
   H      -17.23630         7.18701        -1.97508
   H      -15.60590         5.75432        -3.13980
   H      -13.24516         5.73419        -2.43445
*
