# ORCA input file
# SCF done       -216.049883814169          0.000415035200
! CAM-B3LYP def2-SVP def2/J RIJCOSX Grid4 TightSCF
%maxcore 5000
%tddft
    Mode sTDDFT
    Ethresh 5.0
    maxcore 5000
end

%pal
  nprocs 6
  end
* xyz 0 1
   C        0.13658        -0.41530         4.31946
   C       -0.25240        -1.40795         3.45670
   C        0.22799        -2.73237         3.51046
   N        0.57749        -3.82623         3.51050
   C       -1.14453        -1.24378         2.37611
   N       -1.84044        -1.19339         1.46364
   C        1.14304        -0.54954         5.36387
   C        1.38619         0.72857         5.92007
   C        2.29214         0.93685         6.93109
   C        2.99332        -0.17166         7.41697
   C        2.74073        -1.44665         6.85766
   C        1.82410        -1.65687         5.83526
   S        3.71056        -2.67778         7.60943
   C        4.43364        -1.47821         8.64813
   C        3.97408        -0.22102         8.44557
  Br        5.72697        -1.99971         9.90284
   C        0.52945         1.73446         5.25495
   O        0.49987         2.91695         5.51722
   C       -0.30267         0.96977         4.29251
   C       -1.43055         1.40213         3.65773
   C       -1.92342         2.73166         3.46607
   C       -3.31397         2.89226         3.29015
   C       -3.83954         4.14001         3.08007
   C       -2.98701         5.26289         3.04944
   C       -1.61084         5.11328         3.17815
   C       -1.08689         3.85608         3.38031
   C       -3.78898         6.44536         2.86999
   C       -5.14311         6.06750         2.79376
   C       -5.28656         4.56286         2.91629
   C       -5.91294         4.04426         1.60439
   C       -6.07571         2.53449         1.48572
   C       -6.05003         4.13573         4.18781
   C       -7.51991         4.52953         4.25440
   C       -6.10654         7.01969         2.57127
   C       -5.75046         8.37629         2.45882
   C       -4.39569         8.73207         2.56384
   C       -3.41954         7.78147         2.75975
   C       -6.80430         9.33267         2.24805
   C       -6.63782        10.65048         1.99054
   C       -7.65497        11.63107         1.78927
   C       -9.05139        11.44449         1.90585
   C       -9.99009        12.52120         1.68797
   N      -11.29855        12.30473         1.80887
   C      -11.73857        11.10239         2.12943
   C      -10.81568        10.03895         2.35236
   N       -9.52327        10.22974         2.23952
   C      -11.27841         8.74553         2.70154
   N      -11.66964         7.70510         2.98045
   C      -13.12954        10.88743         2.24941
   N      -14.25319        10.68108         2.35286
   C       -9.57674        13.85069         1.33474
   C       -8.17361        14.02423         1.21648
   C       -7.24754        12.94313         1.44510
   N       -5.98322        13.33411         1.28788
   S       -5.95250        14.89500         0.89319
   N       -7.54838        15.14995         0.90262
   C      -10.55516        14.82828         1.15237
   C      -10.47874        16.16321         0.79306
   C      -11.62694        16.98074         0.67761
   C      -11.37765        18.26911         0.29744
   C      -10.01244        18.52340         0.08878
   S       -9.05333        17.08972         0.40394
   C       -9.40671        19.70450        -0.31539
   C      -10.00120        20.95214        -0.59428
   C       -9.11777        21.91522        -0.97987
   C       -7.76812        21.48499        -1.03456
   S       -7.68143        19.78535        -0.55425
   C       -6.71706        22.27104        -1.42281
   N       -5.42151        21.95521        -1.52052
   C       -4.84341        20.65877        -1.25775
   N       -3.42371        20.90579        -1.32717
   C       -3.20550        21.98427        -2.27949
   C       -1.88219        22.68548        -1.96345
   C       -1.89187        24.16659        -2.33126
   C       -3.09123        24.93220        -1.69808
   C       -4.08472        23.98718        -1.02308
   C       -4.42731        22.88180        -2.02308
   N       -2.44962        25.84717        -0.77446
   C       -1.11479        26.09598        -1.29520
   N       -0.68327        24.83312        -1.84697
   C       -3.17392        26.85167        -0.16877
   C       -2.70230        28.01484         0.26451
   H        2.45511         1.92425         7.33390
   H        1.66196        -2.64837         5.44680
   H        4.31036         0.63749         8.99779
   H       -2.08419         0.63080         3.26411
   H       -3.94725         2.02061         3.35987
   H       -0.95937         5.97208         3.12264
   H       -0.02026         3.72978         3.45317
   H       -5.28556         4.39614         0.78056
   H       -6.88961         4.51714         1.49067
   H       -5.11072         2.03701         1.45112
   H       -6.60209         2.30356         0.56186
   H       -6.65522         2.13058         2.31146
   H       -5.52899         4.57281         5.04441
   H       -5.96873         3.05124         4.28030
   H       -7.63552         5.60819         4.30112
   H       -7.96274         4.10797         5.15453
   H       -8.07376         4.15119         3.39974
   H       -7.14681         6.75146         2.46547
   H       -4.11179         9.77009         2.48898
   H       -2.38033         8.06804         2.82519
   H       -7.80886         8.93952         2.29648
   H       -5.64134        11.06193         1.89841
   H      -11.56292        14.46630         1.32227
   H      -12.60876        16.58986         0.87955
   H      -12.13773        19.01803         0.16277
   H      -11.06112        21.10533        -0.50383
   H       -9.39307        22.92423        -1.23161
   H       -6.95054        23.29041        -1.70335
   H       -5.21647        19.92819        -2.00178
   H       -5.11062        20.29927        -0.25710
   H       -2.88813        20.07270        -1.53206
   H       -3.21752        21.64095        -3.32796
   H       -1.06261        22.19298        -2.48713
   H       -1.70383        22.58366        -0.89135
   H       -1.92512        24.27332        -3.42262
   H       -3.62346        25.48660        -2.49168
   H       -4.98936        24.52731        -0.74094
   H       -3.65216        23.55367        -0.12242
   H       -4.78621        23.34448        -2.95061
   H       -0.44462        26.43925        -0.50692
   H       -1.13810        26.84975        -2.10176
   H       -0.25633        24.27013        -1.11865
   H       -4.21172        26.59191        -0.00802
   H       -1.68044        28.31812         0.13030
   H       -3.34273        28.69727         0.79118
*
