# ORCA input file
# SCF done       -183.571515918730          0.000369044215
! CAM-B3LYP def2-SVP def2/J RIJCOSX Grid4 TightSCF
%maxcore 5000
%tddft
    Mode sTDDFT
    Ethresh 5.0
    maxcore 5000
end

%pal
  nprocs 6
  end
* xyz 0 1
   C       17.66206         5.04905        12.76364
   C       17.47918         3.76463        12.43049
   C       16.85860         2.73078        13.20549
   C       16.82174         1.52230        12.59884
   C       17.38380         1.51207        11.29424
   S       18.00659         3.08788        10.88036
   C       17.42465         0.45179        10.40709
   C       17.03656        -0.88614        10.60974
   C       17.10345        -1.65443         9.47830
   C       17.52270        -0.95703         8.33233
   S       17.92342         0.69386         8.74641
   C       17.51778        -1.38797         7.01015
   C       17.81890        -0.54942         5.95916
   C       17.62460        -0.81293         4.61062
   C       17.83502         0.09999         3.56650
   C       17.47991        -0.37281         2.33211
   C       16.98248        -1.68587         2.35587
   S       16.97162        -2.30574         3.98635
   C       16.55273        -2.42786         1.25986
   C       16.49897        -2.00394        -0.07823
   C       16.04246        -2.95065        -0.95135
   C       15.71566        -4.17963        -0.34007
   S       15.99916        -4.08132         1.39624
   C       15.25236        -5.29916        -0.98165
   N       14.96477        -6.46305        -0.35665
   C       14.55545        -7.59834        -0.95091
   S       14.44119        -7.67191        -2.69146
   C       14.00364        -9.35131        -2.57681
   N       13.75537       -10.03247        -3.77012
   O       13.44821       -11.20988        -3.70133
   O       13.86787        -9.38767        -4.80152
   C       13.94942        -9.81322        -1.29465
   C       14.24123        -8.82640        -0.32300
   C       14.17733        -9.14040         1.05707
   C       14.20464        -8.32435         2.15775
   C       14.09685        -8.83742         3.45181
   C       14.06674        -8.08809         4.61004
   C       13.90438        -8.58400         5.91778
   C       13.88148        -7.61648         6.88390
   C       14.03520        -6.31140         6.38465
   S       14.20913        -6.33657         4.65038
   C       14.05009        -5.13155         7.12456
   C       13.86755        -5.00218         8.50932
   C       13.93183        -3.70660         8.95289
   C       14.17121        -2.76632         7.93836
   S       14.30833        -3.56358         6.39152
   C       14.32825        -1.39705         8.13239
   C       14.59795        -0.50305         7.12173
   C       14.90718         0.85370         7.15666
   C       15.28238         1.44756         5.86015
   O       15.24189         0.90603         4.76918
   C       15.73268         2.82054         6.14933
   C       16.25226         3.75201         5.30069
   C       16.66313         5.00084         5.82041
   C       16.53076         5.24408         7.21627
   C       16.95138         6.48277         7.73757
   C       17.47428         7.43747         6.91064
   C       17.60031         7.19723         5.52992
   C       17.20437         6.00340         4.99406
   F       18.11602         8.15230         4.73839
   F       17.87408         8.61753         7.41180
   C       15.98334         4.25494         8.06718
   C       15.57889         3.05894         7.54150
   C       15.01739         1.85431         8.17428
   C       14.65943         1.84114         9.51151
   C       14.20959         0.78127        10.31188
   N       13.88505         0.00510        11.09915
   C       14.70398         2.96342        10.36056
   N       14.69404         3.80207        11.14914
   H       17.32052         5.42200        13.71270
   H       18.14046         5.74447        12.09834
   H       16.45815         2.94224        14.18034
   H       16.37556         0.63997        13.02098
   H       16.70715        -1.24571        11.56714
   H       16.83498        -2.69518         9.43656
   H       17.19481        -2.40080         6.80915
   H       18.18155         0.44498         6.19416
   H       18.22752         1.08373         3.75217
   H       17.56268         0.19471         1.42349
   H       16.79339        -1.01299        -0.37094
   H       15.93525        -2.80348        -2.01055
   H       15.10182        -5.27369        -2.05053
   H       15.11387        -6.48983         0.64741
   H       13.68944       -10.83008        -1.06105
   H       14.04512       -10.19716         1.25338
   H       14.25859        -7.24653         2.07877
   H       14.01680        -9.91038         3.56912
   H       13.80140        -9.63696         6.11153
   H       13.76069        -7.81682         7.93281
   H       13.68911        -5.84780         9.14844
   H       13.81182        -3.40407         9.97798
   H       14.24693        -1.06809         9.15315
   H       14.62744        -0.90859         6.11243
   H       16.35023         3.53980         4.24651
   H       16.85718         6.68325         8.79334
   H       17.30719         5.83549         3.93328
   H       15.90952         4.47928         9.11777
*
