# ORCA input file
# SCF done       -164.170949753842          0.000824950192
! CAM-B3LYP def2-SVP def2/J RIJCOSX Grid4 TightSCF
%maxcore 5000
%tddft
    Mode sTDDFT
    Ethresh 5.0
    maxcore 5000
end

%pal
  nprocs 6
  end
* xyz 0 1
   C       -1.85766         0.56908         3.40919
   C       -3.12468         0.04590         3.18133
   C       -3.35231        -1.06759         2.28364
   N       -4.59794        -1.53629         2.12142
   C       -5.59046        -0.97786         2.76817
   C       -5.36496         0.13817         3.64659
   N       -4.16564         0.61314         3.83147
   C       -6.46499         0.72873         4.32227
   N       -7.37938         1.17293         4.84891
   C       -6.89824        -1.49251         2.59130
   N       -7.96485        -1.89143         2.46564
   C       -2.27835        -1.67649         1.58347
   C       -1.00252        -1.13279         1.84027
   C       -0.79402        -0.02130         2.74104
   N        0.50166         0.31456         2.81402
   S        1.34737        -0.65205         1.86584
   N        0.14496        -1.55192         1.30284
   C       -2.42344        -2.76506         0.67601
   C       -3.58496        -3.38649         0.24815
   C       -3.32586        -4.41768        -0.64609
   C       -1.95921        -4.60402        -0.91051
   S       -0.98563        -3.47359        -0.04955
   C       -1.74312        -5.65104        -1.80904
   C       -2.93712        -6.25130        -2.23000
   S       -4.34773        -5.53229        -1.51249
   C       -2.75148        -7.30353        -3.13085
   C       -1.41787        -7.51400        -3.40133
   S       -0.37108        -6.40642        -2.52978
   C       -0.84575        -8.51269        -4.25315
   C       -1.44220        -9.16541        -5.31402
   C       -2.78122        -8.75550        -5.82381
   O       -3.73284        -9.47923        -5.89725
   O       -2.86471        -7.46963        -6.20960
   C       -0.60379       -10.17565        -5.87995
   C        0.61122       -10.22725        -5.23974
   S        0.75556        -9.11935        -3.95201
   C       -0.90854       -11.02848        -7.00281
   C       -2.12792       -11.39870        -7.51326
   C       -1.99418       -12.26592        -8.60237
   C       -0.66630       -12.56868        -8.92874
   S        0.43172       -11.76639        -7.87092
   C       -0.56333       -13.43944       -10.01443
   C       -1.82656       -13.79468       -10.51661
   S       -3.14205       -13.05431        -9.64262
   C       -1.76912       -14.65995       -11.59980
   C       -0.46257       -14.98000       -11.93728
   S        0.71395       -14.19649       -10.89663
   C       -0.03979       -15.83530       -12.98810
   C        1.33724       -16.08366       -13.20794
   C        1.80783       -16.94755       -14.26523
   N        3.13631       -17.14492       -14.42240
   C        3.96447       -16.54841       -13.61065
   C        3.49638       -15.68813       -12.55624
   N        2.21155       -15.48692       -12.39344
   C        4.41535       -15.05536       -11.68629
   N        5.18627       -14.55512       -11.00185
   C        5.36086       -16.75323       -13.76830
   N        6.49323       -16.88916       -13.86820
   C        0.92223       -17.58070       -15.12528
   C       -0.43559       -17.35209       -14.92930
   C       -0.92669       -16.48860       -13.87200
   N       -2.26000       -16.42071       -13.87741
   S       -2.82820       -17.33258       -15.06824
   N       -1.43953       -17.86807       -15.64968
   H       -1.72254         1.39869         4.08116
   H       -4.56187        -3.09182         0.58054
   H       -3.54961        -7.89545        -3.53879
   H       -2.03404        -6.98652        -6.10839
   H        1.42745       -10.88386        -5.46807
   H       -3.07090       -11.07925        -7.11218
   H       -2.61596       -15.05133       -12.13141
   H        1.28037       -18.22249       -15.91124
*
