# ORCA input file
# SCF done       -248.528039372623          0.000899715148
! CAM-B3LYP def2-SVP def2/J RIJCOSX Grid4 TightSCF
%maxcore 5000
%tddft
    Mode sTDDFT
    Ethresh 5.0
    maxcore 5000
end

%pal
  nprocs 6
  end
* xyz 0 1
   C        6.79369         0.75065        -2.79677
   C        6.02135         1.65991        -3.68897
   O        5.06946         1.35259        -4.37279
   C        6.63483         2.98846        -3.50073
   C        7.76463         2.87081        -2.68967
   C        7.98118         1.46385        -2.37329
   C        9.17374         0.89352        -2.01745
   C        9.40125        -0.49970        -2.06474
   N        9.64720        -1.61631        -2.16430
   C       10.32790         1.62164        -1.66784
   N       11.28858         2.16558        -1.35293
   C        8.51580         4.00024        -2.34030
   C        8.12347         5.22379        -2.81612
   C        6.99420         5.37693        -3.65053
   C        6.21880         4.23543        -4.00735
   C        5.09035         4.39547        -4.83696
   C        4.74583         5.63632        -5.29744
   C        5.50778         6.76376        -4.95148
   C        6.60632         6.63825        -4.14635
   C        6.28079        -0.44845        -2.42486
   C        6.64494        -1.25438        -1.31310
   C        6.37142        -2.58754        -1.16137
   C        6.82797        -3.13462         0.05775
   C        6.75964        -4.47514         0.49478
   C        6.24129        -5.54297        -0.33235
   C        5.49529        -6.62118         0.05879
   C        5.19414        -7.50509        -0.99452
   C        5.71763        -7.12243        -2.19167
   S        6.59099        -5.63432        -2.03868
   C        5.61386        -7.80387        -3.50830
   C        7.23486        -4.73379         1.77773
   C        7.79684        -3.73576         2.60969
   C        7.93032        -2.40781         2.14904
   C        7.40649        -2.14287         0.89142
   S        7.41906        -0.58721         0.11300
   C        8.63056        -1.40655         2.92469
   C        9.78251        -1.55886         3.64587
   C       10.22426        -0.36650         4.25250
   C        9.41627         0.69968         4.00409
   S        8.08042         0.24580         2.99521
   C        9.56633         2.10392         4.46614
   C        8.16843        -4.25712         3.86934
   C        7.96894        -5.60522         3.99238
   S        7.29695        -6.30372         2.54147
   C        8.24910        -6.42889         5.13665
   C        8.59617        -5.91443         6.37775
   C        8.88163        -6.73107         7.46568
   C        8.85783        -8.11565         7.37771
   C        8.51377        -8.67985         6.11774
   N        8.49378       -10.01322         5.97701
   C        8.15182       -10.51892         4.82282
   C        7.79778        -9.69225         3.74088
   N        7.82414        -8.39073         3.84584
   C        8.18699        -7.84499         5.01580
   C        9.16557        -8.98116         8.48314
   C        9.34675        -8.62422         9.79221
   C        9.65597        -9.70691        10.64561
   C        9.91432        -9.67539        12.03349
   C        9.80368        -8.47191        12.83102
   C       10.58655        -8.08573        13.88263
   C       10.15915        -6.88855        14.49051
   C        9.04228        -6.35879        13.92294
   S        8.50072        -7.33494        12.59593
   C        8.30241        -5.12657        14.30133
   C       10.25201       -10.88875        12.62326
   C       10.34793       -12.10307        11.89732
   C       10.12410       -12.12298        10.50306
   C        9.74581       -10.92184         9.91959
   S        9.36611       -10.69543         8.23203
   C       10.34525       -13.33374         9.74425
   C       11.38241       -14.21550         9.88515
   C       11.32781       -15.29346         8.98130
   C       10.25144       -15.24375         8.14912
   S        9.28258       -13.83771         8.46153
   C        9.86854       -16.19872         7.07659
   C       10.61744       -13.20217        12.73512
   C       10.76093       -12.87341        14.06000
   S       10.53433       -11.15370        14.32057
   C       10.97224       -13.72257        15.17389
   C       11.42288       -15.00556        15.19591
   C       11.15443       -15.85102        16.39370
   O       10.79963       -15.45406        17.48172
   C       11.36406       -17.23923        15.94118
   C       11.84996       -17.23264        14.63355
   C       12.04508       -15.85181        14.20154
   C       12.87821       -15.44689        13.19156
   C       13.27480       -14.10598        13.00715
   N       13.67009       -13.04071        12.84423
   C       13.48516       -16.31143        12.25954
   N       13.97428       -16.95486        11.44373
   C       12.10821       -18.43419        13.96130
   C       11.88035       -19.61642        14.61579
   C       11.40195       -19.65839        15.94375
   C       11.13000       -18.44190        16.63540
   C       10.64842       -18.48905        17.95960
   C       10.44744       -19.69360        18.57500
   C       10.71639       -20.89501        17.89939
   C       11.18227       -20.87919        16.61349
   H        9.37898         3.91020        -1.70070
   H        8.68808         6.10700        -2.55375
   H        4.51284         3.52224        -5.09628
   H        3.88165         5.75793        -5.93335
   H        5.21818         7.73411        -5.32717
   H        7.19481         7.50417        -3.87905
   H        5.43378        -0.80082        -3.00542
   H        5.87662        -3.15696        -1.92685
   H        5.14076        -6.75865         1.06382
   H        4.60769        -8.39785        -0.86728
   H        6.60254        -8.06664        -3.88436
   H        5.14199        -7.15244        -4.24360
   H        5.02218        -8.71106        -3.41141
   H       10.32528        -2.48587         3.69729
   H       11.11771        -0.30251         4.84849
   H       10.41130         2.18326         5.14599
   H        8.66581         2.44069         4.97860
   H        9.73559         2.76834         3.61870
   H        8.56059        -3.64148         4.65748
   H        8.64108        -4.84511         6.51374
   H        9.14235        -6.26439         8.40259
   H        8.15173       -11.59702         4.74440
   H        7.49485       -10.09778         2.78593
   H        9.26299        -7.61179        10.14022
   H       11.46543        -8.62228        14.19082
   H       10.66492        -6.43755        15.32575
   H        7.27954        -5.36645        14.59210
   H        8.25484        -4.43070        13.46385
   H        8.79864        -4.63854        15.13668
   H       12.19194       -14.05959        10.57572
   H       12.06669       -16.07491         8.95378
   H       10.55043       -17.04570         7.07393
   H        9.90762       -15.71431         6.10095
   H        8.85241       -16.56194         7.22724
   H       10.62392       -14.21650        12.37849
   H       10.66317       -13.32823        16.13699
   H       12.46851       -18.43192        12.94531
   H       12.07000       -20.55278        14.11104
   H       10.44544       -17.55976        18.46811
   H       10.07896       -19.72921        19.58935
   H       10.55129       -21.83495        18.40509
   H       11.39028       -21.80226        16.09166
*
