# ORCA input file
# SCF done       -191.506765781443          0.000671926697
! CAM-B3LYP def2-SVP def2/J RIJCOSX Grid4 TightSCF
%maxcore 5000
%tddft
    Mode sTDDFT
    Ethresh 5.0
    maxcore 5000
end

%pal
  nprocs 6
  end
* xyz 0 1
   C        4.71218        -2.32485        -0.60614
   C        5.18191        -3.41915        -1.50661
   O        6.24811        -3.45418        -2.08151
   C        4.10440        -4.42138        -1.48308
   C        3.01523        -3.91669        -0.76964
   C        3.30587        -2.55289        -0.34382
   C        2.38266        -1.60389        -0.00138
   C        2.71113        -0.24577         0.17833
   N        2.94580         0.87166         0.29993
   C        1.00202        -1.84968         0.14253
   N       -0.12926        -1.98921         0.27509
   C        1.86688        -4.69422        -0.57434
   C        1.83139        -5.95867        -1.10165
   C        2.90988        -6.49508        -1.83958
   C        4.08550        -5.71482        -2.04142
   C        5.16096        -6.25675        -2.77383
   C        5.07447        -7.52130        -3.28795
   C        3.91859        -8.29406        -3.09315
   C        2.86016        -7.79377        -2.38543
   C        5.60482        -1.42263        -0.12999
   C        5.46568        -0.55732         0.98862
   C        6.12646         0.59903         1.28564
   C        5.64885         1.11766         2.56502
   N        4.75660         0.22797         3.07076
   C        4.58761        -0.82419         2.16939
   O        3.89137        -1.78574         2.39007
   C        4.07355         0.28552         4.33366
   C        6.30255         2.27437         2.84089
   C        7.22075         2.52016         1.68615
   O        7.96214         3.44211         1.48366
   N        7.04402         1.45289         0.78427
   C        7.73438         1.36052        -0.47357
   C        6.23904         3.20983         3.94009
   N        7.38070         3.67579         4.40913
   N        7.45402         4.58874         5.32889
   C        6.39446         5.12224         5.91525
   C        5.10187         4.66483         5.53998
   C        5.01945         3.68370         4.49689
   N        3.75828         3.36198         4.21501
   S        2.78649         4.19702         5.19202
   N        3.90465         4.99216         6.01373
   C        6.60458         6.15373         6.89206
   C        7.66160         6.35775         7.72813
   C        7.40723         7.55204         8.52761
   N        6.21966         8.07605         8.15625
   C        5.66063         7.28237         7.13248
   O        4.63278         7.56366         6.57662
   C        5.59090         9.26598         8.66088
   C        8.40933         7.70487         9.44093
   C        9.37272         6.59295         9.15700
   O       10.44866         6.38400         9.66055
   N        8.83823         5.82215         8.11953
   C        9.46385         4.62218         7.63151
   C        8.58815         8.70156        10.43747
   C        9.30188         8.61792        11.58690
   C        9.67984         9.86905        12.30891
   O        9.20823        10.96795        12.11247
   C       10.74691         9.46750        13.23915
   C       10.90451         8.08064        13.19483
   C        9.90909         7.50934        12.29518
   C        9.46610         6.21538        12.31375
   C        8.34107         5.77437        11.59069
   N        7.41116         5.38931        11.03725
   C       10.02771         5.19240        13.10535
   N       10.43941         4.31975        13.72659
   C       11.88991         7.44889        13.96385
   C       12.68701         8.21739        14.77146
   C       12.53813         9.61940        14.85864
   C       11.54649        10.27490        14.07208
   C       11.40470        11.67457        14.15940
   C       12.21010        12.39601        14.99709
   C       13.18734        11.75548        15.77550
   C       13.34963        10.39880        15.70769
   H        1.03419        -4.31203        -0.00671
   H        0.95670        -6.57577        -0.95471
   H        6.04415        -5.65434        -2.91646
   H        5.89854        -7.93576        -3.84921
   H        3.87207        -9.29038        -3.50733
   H        1.96958        -8.38653        -2.23433
   H        6.57020        -1.42130        -0.62657
   H        4.79333         0.32796         5.15338
   H        3.47242        -0.61878         4.41926
   H        3.43079         1.16589         4.36687
   H        8.26256         2.30151        -0.62478
   H        7.02181         1.20163        -1.28389
   H        8.45772         0.54287        -0.46089
   H        5.51283         9.21795         9.74785
   H        4.59552         9.31969         8.22087
   H        6.15628        10.15603         8.37747
   H       10.53330         4.69634         7.82387
   H        9.25977         4.52019         6.56473
   H        9.06795         3.75039         8.15767
   H        8.15183         9.67512        10.23568
   H       12.02953         6.38157        13.91008
   H       13.45659         7.74784        15.36705
   H       10.65123        12.15590        13.55620
   H       12.09911        13.46785        15.06575
   H       13.81237        12.34470        16.43006
   H       14.10101         9.90370        16.30569
*
