# ORCA input file
# SCF done       -183.732824355852          0.000883418183
! CAM-B3LYP def2-SVP def2/J RIJCOSX Grid4 TightSCF
%maxcore 5000
%tddft
    Mode sTDDFT
    Ethresh 5.0
    maxcore 5000
end

%pal
  nprocs 6
  end
* xyz 0 1
   C        5.73999         2.37537         0.60257
   C        5.76797         3.20183        -0.64230
   O        6.31939         2.89998        -1.67786
   C        4.95687         4.38888        -0.33017
   C        4.60488         4.36946         1.02137
   C        5.21458         3.21124         1.66346
   C        5.46176         3.07420         3.00150
   C        6.24561         2.03163         3.53237
   N        6.89615         1.20230         3.98879
   C        5.02853         3.98369         3.98826
   N        4.70267         4.68410         4.83671
   C        3.79497         5.37523         1.56342
   C        3.36057         6.38307         0.74242
   C        3.71271         6.44302        -0.62436
   C        4.53248         5.42237        -1.18860
   C        4.87860         5.48509        -2.55354
   C        4.43200         6.51976        -3.32888
   C        3.62380         7.52742        -2.77881
   C        3.27113         7.49087        -1.45737
   C        6.08611         1.06677         0.53836
   C        5.80652         0.03538         1.47570
   C        6.42883        -1.16182         1.67163
   C        5.75700        -1.89625         2.74801
   N        4.71493        -1.15317         3.17321
   C        4.65686         0.03678         2.43289
   O        3.77333         0.84764         2.54942
   C        3.79461        -1.41931         4.24820
   C        6.42337        -3.07084         2.95171
   C        7.56121        -3.07648         1.99371
   O        8.41848        -3.89962         1.80994
   N        7.48783        -1.88030         1.25008
   C        8.42729        -1.53617         0.21758
   C        6.13320        -4.17782         3.83237
   N        7.05458        -5.12092         3.99253
   C        6.70526        -6.15366         4.75808
   N        5.54152        -6.23680         5.41152
   C        4.71026        -5.24173         5.20513
   N        4.92412        -4.20842         4.41218
   C        7.61069        -7.26737         4.89900
   C        8.95458        -7.37965         4.70197
   C        9.35473        -8.75925         4.99231
   N        8.26290        -9.46702         5.33449
   C        7.12739        -8.62075         5.29441
   O        6.01907        -9.01853         5.52191
   C        8.18532       -10.86910         5.64101
   C       10.69394        -8.89934         4.77305
   C       11.17175        -7.53425         4.38978
   O       12.29904        -7.16306         4.17966
   N       10.05870        -6.68077         4.37371
   C       10.16104        -5.27821         4.07221
   C       11.52256       -10.04009         4.94869
   C       12.72900       -10.30425         4.38976
   C       13.61037       -11.34042         5.00439
   O       13.26781       -12.16403         5.82505
   C       14.94443       -11.09568         4.43352
   C       14.85628       -10.10570         3.45256
   C       13.46288        -9.70614         3.29345
   C       12.91776        -9.11052         2.18960
   C       11.52641        -8.98608         2.00607
   N       10.39485        -8.91441         1.82498
   C       13.66251        -8.64121         1.08869
   N       14.22044        -8.24184         0.16877
   C       16.00153        -9.66556         2.77719
   C       17.20906       -10.23234         3.09181
   C       17.33088       -11.24877         4.06527
   C       16.17363       -11.69954         4.76454
   C       16.30069       -12.71125         5.73775
   C       17.52568       -13.25782         6.00514
   C       18.66887       -12.81881         5.31844
   C       18.57519       -11.83645         4.37097
   H        3.50481         5.34819         2.60109
   H        2.72800         7.16309         1.14100
   H        5.49885         4.70487        -2.96561
   H        4.69906         6.56837        -4.37395
   H        3.28111         8.33414        -3.40968
   H        2.64956         8.26545        -1.03203
   H        6.57898         0.76546        -0.38086
   H        3.76653        -2.49329         4.42573
   H        2.81361        -1.03847         3.96583
   H        4.12326        -0.90565         5.15455
   H        9.22333        -2.27985         0.24106
   H        8.84170        -0.54411         0.40116
   H        7.95026        -1.55384        -0.76405
   H        3.75999        -5.27471         5.72439
   H        8.68589       -11.45239         4.86719
   H        7.12918       -11.13484         5.68039
   H        8.64352       -11.08182         6.60887
   H       11.16561        -5.09755         3.69290
   H       10.00155        -4.68377         4.97377
   H        9.41758        -5.00158         3.32545
   H       11.18757       -10.76851         5.68097
   H       15.93687        -8.88601         2.03568
   H       18.10429        -9.90061         2.58580
   H       15.41572       -13.04006         6.25926
   H       17.62217       -14.03402         6.74957
   H       19.62622       -13.26398         5.54581
   H       19.45365       -11.49705         3.84139
*
