# ORCA input file
# SCF done       -205.185262550680          0.000463580249
! CAM-B3LYP def2-SVP def2/J RIJCOSX Grid4 TightSCF
%maxcore 5000
%tddft
    Mode sTDDFT
    Ethresh 5.0
    maxcore 5000
end

%pal
  nprocs 6
  end
* xyz 0 1
   C       -5.23978        -6.55472         6.17608
   C       -5.61248        -7.07331         4.94086
   C       -4.66175        -7.20115         3.87060
   N       -5.04945        -7.70588         2.68602
   C       -6.29040        -8.07158         2.53171
   C       -7.22485        -7.94531         3.58499
   N       -6.89823        -7.46389         4.74767
   C       -3.30758        -6.81157         4.00892
   C       -2.94497        -6.28442         5.26805
   C       -3.91738        -6.16305         6.33795
   N       -3.37136        -5.64209         7.44596
   S       -1.82396        -5.34299         7.16989
   N       -1.74223        -5.84691         5.64736
   C       -2.39648        -6.95566         2.92996
   C       -1.04752        -6.62000         2.91058
   C       -0.42979        -6.88384         1.69994
   C       -1.32226        -7.43222         0.77290
   S       -2.91779        -7.61910         1.40143
   C       -0.78485        -7.73098        -0.49544
   C        0.56478        -7.44060        -0.69769
  Si        1.27134        -6.70433         0.89511
   C        2.62400        -7.77223         1.66011
   C        3.10613        -8.91262         1.02526
   C        4.12007        -9.66428         1.59171
   C        4.66775        -9.28688         2.80603
   C        4.19728        -8.15442         3.45052
   C        3.18550        -7.40486         2.87983
   C        1.79803        -4.89830         0.74220
   C        0.85254        -3.88273         0.62660
   C        1.24170        -2.56028         0.51934
   C        2.58717        -2.23139         0.52532
   C        3.53912        -3.23066         0.63989
   C        3.14549        -4.55205         0.74758
   C        0.98872        -7.77904        -1.97589
   C       -0.01191        -8.32949        -2.76084
   S       -1.52565        -8.42296        -1.88609
   C        0.08679        -8.79025        -4.10526
   C       -0.97924        -9.33961        -4.80550
   C       -0.88649        -9.79401        -6.11903
   C        0.28095        -9.74275        -6.86937
   C        1.40456        -9.18609        -6.19551
   C        1.30945        -8.71894        -4.83075
   N        2.50084        -8.27269        -4.48949
   O        3.28717        -8.44255        -5.55308
   N        2.64685        -8.98989        -6.58695
   C        0.37253       -10.21245        -8.21116
   C        1.47749       -10.18452        -9.04691
   C        1.23703       -10.73441       -10.29886
   C       -0.07284       -11.19736       -10.42930
   S       -1.00652       -10.94175        -9.00618
   C       -0.42184       -11.79519       -11.65719
   C        0.59728       -11.86679       -12.61255
  Si        2.16894       -11.09175       -11.90719
   C        3.59056       -12.30194       -11.63012
   C        4.72170       -12.25990       -12.43878
   C        5.77048       -13.13883       -12.23866
   C        5.70395       -14.07657       -11.22200
   C        4.58444       -14.13082       -10.40847
   C        3.53783       -13.25075       -10.61272
   C        2.72474        -9.55800       -12.85295
   C        3.80852        -8.81538       -12.39313
   C        4.25580        -7.70700       -13.08803
   C        3.62554        -7.32403       -14.26058
   C        2.54691        -8.05337       -14.73096
   C        2.10093        -9.16043       -14.03134
   C        0.16170       -12.46769       -13.78136
   C       -1.17210       -12.85773       -13.74110
   S       -1.90988       -12.47315       -12.20625
   C       -1.91790       -13.49225       -14.76881
   C       -3.27402       -13.84578       -14.56748
   C       -4.05869       -14.49458       -15.58189
   N       -5.35446       -14.81103       -15.32914
   C       -5.84308       -14.50943       -14.16273
   C       -5.07242       -13.86994       -13.16484
   N       -3.82612       -13.55451       -13.37638
   C       -3.51464       -14.80569       -16.82322
   C       -2.18753       -14.46479       -17.04879
   C       -1.38099       -13.81041       -16.03582
   N       -0.14162       -13.57568       -16.47261
   S       -0.00558       -14.11590       -17.97890
   N       -1.49153       -14.67570       -18.17503
   H       -5.95728        -6.46331         6.97283
   H       -6.56703        -8.47229         1.56669
   H       -8.25532        -8.24881         3.45592
   H       -0.56078        -6.19692         3.76980
   H        2.68402        -9.21049         0.07648
   H        4.48558       -10.54551         1.08456
   H        5.45989        -9.87268         3.24920
   H        4.62219        -7.85599         4.39811
   H        2.82455        -6.51912         3.38250
   H       -0.19827        -4.13546         0.62510
   H        0.49593        -1.78330         0.43214
   H        2.89290        -1.19863         0.44203
   H        4.58972        -2.97847         0.64567
   H        3.89076        -5.32883         0.84083
   H        1.98678        -7.63979        -2.34938
   H       -1.93213        -9.41965        -4.30282
   H       -1.77101       -10.20870        -6.58027
   H        2.41677        -9.77289        -8.72638
   H        4.77891       -11.52617       -13.22992
   H        6.64236       -13.09249       -12.87506
   H        6.52331       -14.76232       -11.06278
   H        4.52981       -14.85931        -9.61251
   H        2.66761       -13.29347        -9.97336
   H        4.30581        -9.11421       -11.48186
   H        5.09781        -7.14083       -12.71728
   H        3.97500        -6.45961       -14.80623
   H        2.05346        -7.75885       -15.64586
   H        1.25976        -9.72700       -14.40325
   H        0.77068       -12.63348       -14.65109
   H       -6.87777       -14.77168       -13.98593
   H       -5.48385       -13.62024       -12.19700
   H       -4.10859       -15.29222       -17.57721
*
