# ORCA input file
# SCF done       -242.417718975629          0.000802664083
! CAM-B3LYP def2-SVP def2/J RIJCOSX Grid4 TightSCF
%maxcore 5000
%tddft
    Mode sTDDFT
    Ethresh 5.0
    maxcore 5000
end

%pal
  nprocs 6
  end
* xyz 0 1
   C        1.51828        -3.40014         7.70197
   C        1.89122        -3.99882         8.87264
   F        2.70864        -3.36335         9.72333
   C        1.42417        -5.28726         9.20002
   F        1.80533        -5.84941        10.35554
   C        0.59216        -5.96084         8.35020
   C        0.19298        -5.37207         7.13484
   C        0.66163        -4.06789         6.80395
   C        0.27341        -3.45561         5.58963
   C       -0.55301        -4.12937         4.72957
   C       -1.01021        -5.43346         5.06715
   C       -0.65886        -6.04852         6.23331
   C       -1.86447        -5.94273         3.97837
   O       -2.40160        -7.03417         3.93825
   C       -1.91843        -4.87759         2.96938
   C       -1.10565        -3.76666         3.42498
   C       -0.86182        -2.58626         2.77030
   C       -1.36175        -2.22172         1.50272
   N       -1.71193        -1.84517         0.47536
   C       -0.05032        -1.55212         3.28250
   N        0.59744        -0.67299         3.63737
   C       -2.62480        -4.92885         1.79352
   C       -3.40731        -5.95843         1.25038
   C       -4.04054        -5.82784         0.01090
   C       -4.72423        -6.95967        -0.40565
   C       -5.49687        -7.04549        -1.64982
   C       -4.91368        -6.63936        -2.85941
   C       -5.63105        -6.75615        -4.04522
   C       -6.91660        -7.26175        -4.02200
   C       -7.51446        -7.64915        -2.83734
   C       -6.80998        -7.53900        -1.64453
   O       -7.31330        -7.88489        -0.42527
   C       -8.61213        -8.42221        -0.35376
   O       -3.64162        -6.17135        -2.77791
   C       -2.97580        -5.80614        -3.96297
   C       -4.62830        -7.98550         0.54176
   S       -3.72585        -7.52921         1.93562
   C       -5.16486        -9.30873         0.44345
   C       -5.69023        -9.97428         1.56739
   C       -6.27207       -11.28132         1.47130
   N       -6.75904       -11.86903         2.58521
   C       -6.71253       -11.24025         3.71150
   C       -6.17500        -9.92337         3.79428
   N       -5.68846        -9.33268         2.75657
   F       -6.17731        -9.26518         4.94845
   F       -7.18970       -11.85252         4.78945
   C       -6.35076       -11.99634         0.25662
   C       -5.80403       -11.34008        -0.87029
   C       -5.20871       -10.02573        -0.76774
   N       -4.70954        -9.61697        -1.93697
   S       -4.99123       -10.73075        -3.04704
   N       -5.73799       -11.80674        -2.11966
   C       -6.91792       -13.30155         0.19631
   C       -6.92359       -14.15844        -0.89312
   C       -7.55156       -15.37859        -0.65652
   C       -7.56448       -16.46385        -1.64342
   C       -7.13756       -17.75568        -1.29642
   C       -7.19045       -18.77866        -2.23521
   C       -7.65137       -18.51441        -3.51227
   C       -8.04777       -17.24509        -3.88274
   C       -8.00283       -16.20887        -2.95371
   O       -8.39529       -14.93644        -3.21019
   C       -8.92759       -14.62749        -4.47820
   O       -6.68006       -17.91023        -0.02376
   C       -6.24742       -19.18216         0.39504
   C       -8.06908       -15.45827         0.64443
   S       -7.68321       -14.02936         1.56432
   C       -8.76026       -16.49714         1.29820
   C       -9.48722       -17.52316         0.76235
   C       -9.65375       -18.78309         1.52749
   O       -9.45099       -18.96265         2.70611
   C      -10.03747       -19.79483         0.51455
   C      -10.15974       -21.14657         0.65466
   C      -10.48413       -21.92770        -0.47830
   C      -10.67432       -21.28881        -1.73807
   C      -10.98327       -22.07672        -2.86486
   C      -11.10219       -23.43305        -2.74665
   C      -10.91751       -24.06302        -1.50005
   C      -10.61478       -23.32716        -0.38874
   F      -11.03873       -25.39515        -1.41299
   F      -11.39494       -24.17921        -3.82089
   C      -10.55273       -19.88458        -1.84964
   C      -10.24083       -19.15029        -0.73841
   C      -10.03882       -17.71660        -0.55473
   C      -10.49022       -16.72951        -1.39168
   C      -10.47395       -15.36265        -1.04649
   N      -10.53062       -14.24638        -0.78626
   C      -11.06767       -16.96760        -2.65160
   N      -11.52081       -17.09539        -3.69964
   H        1.88488        -2.41298         7.46736
   H        0.24303        -6.94669         8.61457
   H        0.64404        -2.46701         5.37314
   H       -1.02433        -7.03778         6.46296
   H       -2.57703        -4.05319         1.15717
   H       -3.99471        -4.91891        -0.56154
   H       -5.19846        -6.45894        -4.98611
   H       -7.46712        -7.35334        -4.94613
   H       -8.52128        -8.03263        -2.85310
   H       -8.69313        -9.36155        -0.91103
   H       -9.36241        -7.71430        -0.71830
   H       -8.78905        -8.61750         0.70292
   H       -1.98363        -5.48323        -3.65160
   H       -3.48002        -4.97796        -4.47088
   H       -2.88173        -6.65320        -4.64957
   H       -6.46762       -13.89485        -1.82864
   H       -6.87483       -19.77738        -1.98275
   H       -7.69547       -19.31568        -4.23393
   H       -8.39695       -17.06977        -4.88622
   H       -9.20189       -13.57560        -4.42378
   H       -9.81865       -15.22310        -4.69695
   H       -8.18486       -14.76955        -5.26942
   H       -7.04949       -19.92475         0.32744
   H       -5.96123       -19.06140         1.43836
   H       -5.38312       -19.52377        -0.18274
   H       -8.64235       -16.53478         2.37709
   H      -10.00699       -21.61638         1.61454
   H      -11.13224       -21.60947        -3.82568
   H      -10.47661       -23.82450         0.55855
   H      -10.69007       -19.42274        -2.81439
*
