# ORCA input file
# SCF done       -240.081022374872          0.000385264323
! CAM-B3LYP def2-SVP def2/J RIJCOSX Grid4 TightSCF
%maxcore 5000
%tddft
    Mode sTDDFT
    Ethresh 5.0
    maxcore 5000
end

%pal
  nprocs 6
  end
* xyz 0 1
   C      -15.94678        -3.75761        -1.31807
   C      -16.50154        -2.78009        -0.54088
   F      -17.57064        -2.09885        -0.97613
   C      -15.95968        -2.47516         0.72367
   F      -16.52395        -1.51047         1.46435
   C      -14.86987        -3.15257         1.19393
   C      -14.27519        -4.16522         0.41651
   C      -14.82246        -4.47519        -0.86217
   C      -14.24408        -5.48915        -1.65955
   C      -13.15090        -6.17055        -1.19244
   C      -12.60699        -5.84835         0.08006
   C      -13.14512        -4.87813         0.87479
   C      -11.42894        -6.70007         0.34696
   O      -10.77404        -6.68860         1.36765
   C      -11.23765        -7.51105        -0.87746
   C      -12.35509        -7.24904        -1.77064
   C      -12.67670        -7.93341        -2.91393
   C      -11.99188        -9.05343        -3.43279
   N      -11.52013        -9.98218        -3.91652
   C      -13.79459        -7.63378        -3.72099
   N      -14.68356        -7.43955        -4.42104
   C      -10.16088        -8.28014        -1.22977
   C       -9.01976        -8.68174        -0.50461
   C       -8.68891        -8.59441         0.83004
   C       -7.45536        -9.19130         1.13828
   C       -6.82154        -9.74436         0.00470
   S       -7.76977        -9.52531        -1.42772
   C       -5.59325       -10.39119         0.04368
   O       -5.16973       -10.82630        -1.17202
   C       -3.94711       -11.49178        -1.36325
   C       -4.98508       -10.50892         1.30915
   C       -5.63061        -9.95460         2.46520
   C       -6.84413        -9.28781         2.41376
   O       -7.54986        -8.71510         3.40995
   C       -7.05392        -8.65171         4.72675
   S       -4.69130       -10.27295         3.91128
   C       -3.47852       -11.12027         2.99606
   C       -3.77154       -11.14760         1.66130
   C       -2.34023       -11.73491         3.61718
   C       -2.13300       -11.78082         4.98839
   F       -3.01100       -11.18491         5.81541
   C       -1.05470       -12.44134         5.59536
   F       -1.01834       -12.40851         6.93845
   C       -0.06417       -13.11292         4.89239
   C       -0.22415       -13.04833         3.48499
   C       -1.32957       -12.38819         2.86752
   N       -1.18472       -12.52990         1.54169
   N       -0.08277       -13.21508         1.40396
   N        0.53170       -13.55470         2.50067
   C        0.42808       -13.57551         0.11731
   C        1.00554       -13.84568         5.50800
   C        2.03828       -14.46836         4.85613
   C        2.90042       -15.17156         5.72238
   C        2.49404       -15.06751         7.06714
   S        1.07663       -14.08527         7.24220
   C        3.15459       -15.68971         8.11811
   O        2.63358       -15.45898         9.34645
   C        3.42107       -15.54445        10.51374
   C        4.25177       -16.50651         7.77157
   C        4.69342       -16.57761         6.40675
   C        4.05449       -15.91277         5.37511
   O        4.36271       -15.87984         4.05585
   C        5.54599       -16.47296         3.57344
   S        6.06452       -17.66218         6.27158
   C        6.02216       -18.03030         7.97978
   C        5.01316       -17.34308         8.61120
   C        6.89529       -19.01937         8.48106
   C        7.18111       -19.37908         9.76654
   C        7.74754       -20.73567        10.00525
   O        8.20804       -21.48463         9.17535
   C        7.56837       -20.98282        11.45065
   C        7.80346       -22.12319        12.16203
   C        7.51750       -22.14011        13.54606
   C        6.99005       -20.97011        14.16558
   C        6.69798       -20.99731        15.54388
   C        6.92155       -22.13139        16.27323
   C        7.44511       -23.28705        15.66000
   C        7.73776       -23.29254        14.32482
   F        7.65294       -24.38499        16.39909
   F        6.64274       -22.15489        17.58312
   C        6.76694       -19.79956        13.40400
   C        7.05658       -19.80534        12.06609
   C        6.95501       -18.75921        11.05000
   C        6.89818       -17.41290        11.31334
   C        7.06512       -16.42243        10.32731
   N        7.20886       -15.58293         9.55717
   C        6.72802       -16.86744        12.60080
   N        6.55441       -16.37012        13.62102
   H      -16.37493        -3.97969        -2.28312
   H      -14.46652        -2.90729         2.16396
   H      -14.67908        -5.69532        -2.62390
   H      -12.71245        -4.65699         1.83871
   H      -10.15297        -8.64093        -2.25221
   H       -9.30989        -8.12026         1.56709
   H       -3.89146       -11.66784        -2.43759
   H       -3.92427       -12.45348        -0.84257
   H       -3.09729       -10.87559        -1.05631
   H       -7.79983        -8.08439         5.28189
   H       -6.09526        -8.12938         4.77460
   H       -6.95216        -9.64437         5.17253
   H       -3.10372       -11.63832         0.98362
   H        0.61136       -12.67792        -0.47365
   H       -0.29461       -14.20004        -0.40856
   H        1.35559       -14.12228         0.26708
   H        2.16736       -14.43266         3.79153
   H        2.97963       -14.83942        11.21878
   H        4.45917       -15.26293        10.32505
   H        3.37262       -16.54668        10.95116
   H        5.58966       -16.20382         2.51873
   H        5.52192       -17.56188         3.66431
   H        6.43099       -16.08187         4.08103
   H        4.77935       -17.51952         9.64362
   H        7.34971       -19.65965         7.73008
   H        8.19994       -23.00159        11.67613
   H        6.29997       -20.12043        16.03024
   H        8.13758       -24.18522        13.86991
   H        6.36175       -18.93032        13.89737
*
