# ORCA input file
# SCF done       -153.493865103701          0.000840418381
! CAM-B3LYP def2-SVP def2/J RIJCOSX Grid4 TightSCF
%maxcore 5000
%tddft
    Mode sTDDFT
    Ethresh 5.0
    maxcore 5000
end

%pal
  nprocs 6
  end
* xyz 0 1
   C        4.93572        -2.52921         6.59907
   C        4.34606        -3.42410         7.45471
   C        4.10594        -3.22277         8.82506
   N        3.87896        -3.11734         9.94574
   C        3.92425        -4.67528         6.95940
   N        3.57825        -5.69068         6.55312
   N        5.40139        -1.28648         6.88244
   C        5.34791        -0.67902         8.19010
   C        5.95221        -0.58021         5.81736
   O        6.40283         0.53750         5.92806
   C        5.89465        -1.37341         4.59566
   S        5.16683        -2.93367         4.91073
   C        6.34409        -0.88956         3.40829
   C        6.33583        -1.52085         2.14921
   C        5.93140        -2.79950         1.78242
   C        6.04796        -3.04958         0.42384
   C        6.54786        -1.94636        -0.26971
   S        6.88610        -0.61287         0.75376
   C        6.66586        -2.08598        -1.67346
   C        6.27374        -3.31409        -2.20531
  Si        5.70218        -4.45556        -0.80390
   C        3.85939        -4.89875        -0.90382
   C        6.84869        -5.94591        -0.54190
   C        6.38970        -3.32990        -3.59228
   C        6.86017        -2.13830        -4.10392
   S        7.18206        -0.96293        -2.86991
   C        7.04716        -1.76918        -5.47598
   N        7.49697        -0.54039        -5.71393
   C        7.57941        -0.19594        -6.99707
   N        7.25922        -1.00882        -8.01314
   C        6.87047        -2.21572        -7.66007
   N        6.73594        -2.66085        -6.42629
   C        8.01914         1.13094        -7.30629
   C        8.51680         2.07534        -6.42926
   C        8.82957         3.27739        -7.05318
   C        8.54721         3.23587        -8.41946
   S        7.92892         1.71645        -8.93597
   C        8.78000         4.42742        -9.14872
   C        9.29368         5.50316        -8.41291
  Si        9.52485         4.98041        -6.60532
   C       11.34992         4.91725        -6.08041
   C        8.42307         5.95419        -5.40314
   C        9.45058         6.62087        -9.20715
   C        9.05812         6.43175       -10.53625
   S        8.49130         4.79601       -10.79693
   C        9.10397         7.45713       -11.49561
   C        8.71806         7.46008       -12.80427
   C        8.15644         6.38122       -13.58652
   O        7.94391         5.24072       -13.21950
   N        7.86713         6.80740       -14.87640
   C        8.15514         8.10495       -15.16200
   C        7.95704         8.76547       -16.34823
   C        7.40160         8.21772       -17.51722
   N        6.96119         7.83138       -18.50502
   C        8.32061        10.12374       -16.45615
   N        8.61262        11.22907       -16.54894
   S        8.84807         8.91816       -13.78093
   C        7.29321         5.88003       -15.82128
   H        5.90616        -1.27081         8.91587
   H        4.31630        -0.57686         8.52830
   H        5.80172         0.30786         8.09352
   H        6.74343         0.11718         3.45166
   H        5.56533        -3.52199         2.48894
   H        3.53197        -5.38608         0.00885
   H        3.67368        -5.58103        -1.72689
   H        3.24097        -4.01902        -1.05352
   H        7.89120        -5.64765        -0.48683
   H        6.74716        -6.65498        -1.35699
   H        6.59995        -6.46391         0.37867
   H        6.14093        -4.15921        -4.22843
   H        6.62887        -2.90656        -8.45895
   H        8.63504         1.86755        -5.38158
   H       11.45397         4.43796        -5.11241
   H       11.76384         5.91710        -5.99915
   H       11.95259         4.36320        -6.79343
   H        7.39156         5.98486        -5.73994
   H        8.77218         6.97666        -5.30191
   H        8.43860         5.50163        -4.41702
   H        9.82861         7.56507        -8.85623
   H        9.49618         8.39611       -11.12004
   H        7.19202         4.92678       -15.30143
   H        7.94332         5.75865       -16.68802
   H        6.31292         6.22245       -16.15380
*
