# ORCA input file
# SCF done       -153.492578802417          0.000810245711
! CAM-B3LYP def2-SVP def2/J RIJCOSX Grid4 TightSCF
%maxcore 5000
%tddft
    Mode sTDDFT
    Ethresh 5.0
    maxcore 5000
end

%pal
  nprocs 6
  end
* xyz 0 1
   C        4.41934        -1.90720         6.47542
   C        3.98275        -2.78341         7.43570
   C        3.55535        -2.44500         8.73140
   N        3.19177        -2.23184         9.79940
   C        3.93880        -4.16187         7.14109
   N        3.90247        -5.28297         6.90047
   N        4.53125        -0.55778         6.56535
   C        4.19682         0.20671         7.74248
   C        4.99756         0.09617         5.42898
   O        5.14255         1.29607         5.36954
   C        5.26890        -0.86229         4.36422
   S        4.91814        -2.49070         4.90130
   C        5.71871        -0.46721         3.14452
   C        6.01407        -1.26728         2.02335
   C        5.96298        -2.64720         1.86228
   C        6.32117        -3.07100         0.59209
   C        6.65171        -2.00229        -0.24251
   S        6.52814        -0.48229         0.54213
   C        7.01837        -2.33188        -1.56982
   C        7.01616        -3.68950        -1.88938
  Si        6.48910        -4.69670        -0.37260
   C        4.82163        -5.57354        -0.60603
   C        7.86786        -5.81006         0.30707
   C        7.38096        -3.90276        -3.21514
   C        7.65109        -2.73120        -3.89197
   S        7.46239        -1.32591        -2.89301
   C        8.02417        -2.56903        -5.26575
   N        8.17212        -1.32516        -5.71302
   C        8.48409        -1.21084        -7.00185
   N        8.66547        -2.25168        -7.82585
   C        8.51148        -3.43523        -7.27013
   N        8.18823        -3.66886        -6.01396
   C        8.62126         0.10722        -7.54335
   C        8.49461         1.30875        -6.87365
   C        8.66474         2.41051        -7.70408
   C        8.92085         2.02382        -9.02048
   S        8.96015         0.31648        -9.23047
   C        9.08756         3.07249        -9.95649
   C        8.97945         4.37316        -9.45723
  Si        8.63715         4.30313        -7.59357
   C       10.06294         5.01254        -6.55989
   C        6.93004         4.99438        -7.13279
   C        9.13780         5.33044       -10.44522
   C        9.36550         4.79374       -11.70730
   S        9.38843         3.03379       -11.64196
   C        9.55702         5.38092       -12.97236
   C        9.57143         6.68665       -13.37007
   C        9.40816         7.92647       -12.62819
   O        9.23393         8.07097       -11.43519
   N        9.47850         9.01944       -13.48720
   C        9.68111         8.75258       -14.80374
   C        9.77778         9.65094       -15.83664
   C        9.67735        11.04873       -15.73110
   N        9.60247        12.19454       -15.71331
   C        9.99360         9.18027       -17.14851
   N       10.16809         8.80672       -18.21888
   S        9.81531         7.03689       -15.08167
   C        9.33832        10.35239       -12.95250
   H        4.81048        -0.09879         8.59037
   H        3.14423         0.08353         7.99897
   H        4.39617         1.25154         7.50214
   H        5.85533         0.60261         3.03664
   H        5.67491        -3.31808         2.65089
   H        4.46364        -5.97397         0.33695
   H        4.91760        -6.40151        -1.30080
   H        4.06310        -4.89963        -0.99254
   H        8.80151        -5.26882         0.42605
   H        8.04929        -6.64573        -0.36088
   H        7.59060        -6.21550         1.27475
   H        7.45077        -4.86133        -3.69530
   H        8.66014        -4.29918        -7.90675
   H        8.28365         1.34873        -5.82077
   H        9.90088         4.82822        -5.50289
   H       10.13783         6.08589        -6.70101
   H       11.01685         4.57252        -6.83390
   H        6.14238         4.55942        -7.74028
   H        6.90393         6.07011        -7.27272
   H        6.70072         4.79027        -6.09198
   H        9.09068         6.38964       -10.27775
   H        9.71059         4.66373       -13.77185
   H        9.20518        10.24527       -11.87550
   H        8.46947        10.85252       -13.38124
   H       10.22994        10.94617       -13.15491
*
