# ORCA input file
# SCF done       -180.224949258665          0.000847371007
! CAM-B3LYP def2-SVP def2/J RIJCOSX Grid4 TightSCF
%maxcore 5000
%tddft
    Mode sTDDFT
    Ethresh 5.0
    maxcore 5000
end

%pal
  nprocs 6
  end
* xyz 0 1
   C        4.65780       -10.01043       -10.43839
   C        3.47188       -10.01393       -11.12657
   C        2.97377       -11.06867       -11.91124
   N        2.51257       -11.89223       -12.56494
   C        2.63440        -8.87963       -11.07363
   N        1.94702        -7.96268       -11.03319
   N        5.58093       -11.00315       -10.36478
   C        5.45202       -12.28064       -11.02298
   C        6.70230       -10.73941        -9.58518
   O        7.60266       -11.53353        -9.42849
   C        6.60981        -9.40784        -9.00055
   S        5.14014        -8.60728        -9.50384
   C        7.55553        -8.92064        -8.15144
   C        7.55453        -7.68773        -7.48006
   C        8.49084        -7.27279        -6.52924
   C        8.18075        -6.04425        -5.98361
   C        7.00842        -5.49355        -6.52518
   S        6.28509        -6.49433        -7.70910
   C        6.71484        -4.28374        -5.87176
   C        7.69298        -4.05028        -4.89312
   C        8.74060        -5.14058        -4.90782
   C       10.11231        -4.58593        -5.30330
   C        8.81606        -5.85878        -3.55825
   C        7.42229        -2.93147        -4.13171
   C        6.24000        -2.29941        -4.52095
   S        5.48327        -3.09033        -5.88817
   C        5.57761        -1.23565        -3.85956
   C        4.35896        -0.71156        -4.34965
   C        3.52859         0.15807        -3.57359
   N        2.36101         0.58732        -4.08891
   C        2.00741         0.21523        -5.27739
   C        2.82960        -0.64710        -6.04615
   N        3.95506        -1.08416        -5.57890
   F        2.47458        -1.02305        -7.26997
   F        0.85540         0.67352        -5.75638
   C        3.86045         0.54731        -2.25523
   C        5.15878         0.17076        -1.82859
   C        6.00337        -0.70120        -2.61790
   N        7.16088        -0.94655        -2.00624
   S        7.19916        -0.16413        -0.60361
   N        5.74559         0.51484        -0.68357
   C        2.90280         1.15141        -1.40374
   C        3.06145         1.46903        -0.05337
   C        1.87475         1.84788         0.53930
   C        0.79661         1.83809        -0.36006
   S        1.25650         1.38755        -1.95165
   C       -0.38679         2.10657         0.34982
   C       -0.08238         2.28189         1.71087
   C        1.40888         2.18742         1.93613
   C        1.98230         3.52850         2.40485
   C        1.75364         1.07594         2.92987
   C       -1.20082         2.42676         2.50379
   C       -2.38509         2.36535         1.76884
   S       -2.06556         2.16119         0.04252
   C       -3.73655         2.36573         2.15035
   C       -4.32749         2.33189         3.38273
   C       -3.76528         2.31321         4.72214
   O       -2.59925         2.40758         5.04983
   N       -4.77419         2.16337         5.66961
   C       -6.04615         2.07880         5.20093
   C       -7.19832         1.90144         5.92548
   C       -7.28546         1.76379         7.32113
   N       -7.42329         1.64025         8.45464
   C       -8.43627         1.82812         5.25363
   N       -9.44644         1.76433         4.71430
   S       -6.08387         2.21775         3.46324
   C       -4.43037         2.10345         7.06987
   H        5.39672       -12.15625       -12.10469
   H        4.56174       -12.80660       -10.67691
   H        6.34188       -12.85543       -10.76438
   H        8.39017        -9.58434        -7.95784
   H        9.33666        -7.88008        -6.26175
   H       10.83559        -5.39430        -5.37593
   H       10.45361        -3.87345        -4.55678
   H       10.05335        -4.08226        -6.26523
   H        7.84010        -6.25274        -3.28443
   H        9.14097        -5.16554        -2.78683
   H        9.52300        -6.68284        -3.61115
   H        8.01065        -2.56567        -3.31111
   H        4.01354         1.38236         0.43585
   H        3.06394         3.46111         2.48906
   H        1.56717         3.79006         3.37471
   H        1.73569         4.31488         1.69518
   H        1.35094         0.12500         2.58856
   H        1.32937         1.30439         3.90403
   H        2.83239         0.98378         3.02626
   H       -1.20116         2.55294         3.56997
   H       -4.42988         2.33864         1.31633
   H       -3.34744         2.21562         7.13125
   H       -4.72447         1.14594         7.50147
   H       -4.91454         2.90953         7.62185
*
