# ORCA input file
# SCF done       -136.860093425215          0.000230785443
! CAM-B3LYP def2-SVP def2/J RIJCOSX Grid4 TightSCF
%maxcore 5000
%tddft
    Mode sTDDFT
    Ethresh 5.0
    maxcore 5000
end

%pal
  nprocs 6
  end
* xyz 0 1
   C       -4.99792        -0.01331        -3.22040
   C       -5.60761        -0.56080        -2.10516
   C       -4.93719        -1.49160        -1.33819
   F       -5.60561        -1.98740        -0.27167
   C       -3.63060        -1.92509        -1.61156
   C       -3.03965        -1.36291        -2.75334
   C       -3.71637        -0.43962        -3.51946
   F       -3.10050         0.06833        -4.61256
   C       -2.98340        -2.92860        -0.80513
   C       -1.65629        -3.22337        -0.86336
   C       -1.20856        -4.35505        -0.07277
   O        0.08078        -4.80199        -0.13560
   C        0.86207        -4.23649        -1.16531
   C        0.59779        -2.74029        -1.25083
   O       -0.74674        -2.51569        -1.60777
   C       -2.14967        -4.94252         0.70868
  Si       -3.80854        -4.05715         0.53687
   C       -4.13244        -2.86945         2.00362
   C       -5.20388        -4.94192        -0.42531
   C       -2.00292        -6.06022         1.57279
   C       -0.86410        -6.81895         1.81364
   C       -0.89349        -7.91490         2.66768
   C       -2.04117        -8.32898         3.32882
   C       -3.20832        -7.52893         3.17909
   N       -4.30678        -7.76106         3.91736
   C       -5.35036        -6.99887         3.72179
   C       -5.35309        -5.95395         2.78337
   N       -4.27242        -5.67236         2.10249
   C       -3.18152        -6.42309         2.28226
   C       -2.04142        -9.49944         4.16807
   C       -3.05860       -10.39539         4.24056
   C       -2.90349       -11.47689         5.21105
   O       -3.92998       -12.32114         5.47755
   C       -5.15991       -11.95610         4.89115
   C       -4.93657       -11.52311         3.44881
   O       -4.13544       -10.36218         3.41292
   C       -1.71528       -11.54119         5.86293
  Si       -0.66601       -10.06024         5.33707
   C        0.95748       -10.62989         4.51870
   C       -0.33842        -8.76113         6.69039
   C       -1.34537       -12.57908         6.79860
   C       -0.61915       -12.26999         7.95012
   C       -0.25515       -13.26579         8.83136
   F        0.43979       -12.92745         9.94072
   C       -0.57158       -14.59626         8.62048
   C       -1.26535       -14.92466         7.46895
   C       -1.63459       -13.93139         6.58326
   F       -2.24827       -14.30978         5.44172
   H       -5.49512         0.71368        -3.84082
   H       -6.60864        -0.27428        -1.82335
   H       -2.04786        -1.65714        -3.04670
   H        1.90367        -4.44788        -0.91560
   H        0.61185        -4.70809        -2.12615
   H        1.20505        -2.26955        -2.02585
   H        0.81424        -2.27370        -0.27924
   H       -3.80663        -1.86188         1.77194
   H       -3.61030        -3.19517         2.89687
   H       -5.18975        -2.82268         2.23264
   H       -5.25473        -4.59479        -1.45129
   H       -6.16456        -4.74243         0.03338
   H       -5.06078        -6.01671        -0.44160
   H        0.05468        -6.55833         1.31412
   H        0.00621        -8.49638         2.80381
   H       -6.21952        -7.20050         4.33386
   H       -6.22172        -5.33675         2.60927
   H       -5.80172       -12.83641         4.95216
   H       -5.61054       -11.12693         5.45479
   H       -5.87599       -11.26368         2.95788
   H       -4.44464       -12.33768         2.89778
   H        0.77380       -11.19127         3.60784
   H        1.51085       -11.27276         5.19665
   H        1.59544        -9.78682         4.27438
   H       -1.20981        -8.60733         7.31919
   H       -0.08837        -7.80764         6.23533
   H        0.49334        -9.04784         7.32574
   H       -0.35913       -11.24559         8.15827
   H       -0.27225       -15.34737         9.33257
   H       -1.51741       -15.94939         7.24603
*
