# ORCA input file
# SCF done       -203.333559925633          0.000554531734
! CAM-B3LYP def2-SVP def2/J RIJCOSX Grid4 TightSCF
%maxcore 5000
%tddft
    Mode sTDDFT
    Ethresh 5.0
    maxcore 5000
end

%pal
  nprocs 6
  end
* xyz 0 1
   C       -8.43172        -0.09069         4.14067
   C       -7.14806        -0.79453         3.98392
   O       -6.31252        -0.58779         3.10489
   C       -7.09183        -1.78262         5.05677
   C       -8.30235        -1.74329         5.78115
   C       -9.17780        -0.70571         5.21790
   C      -10.44964        -0.39698         5.64860
   C      -11.36655        -1.32411         6.34963
   O      -11.23404        -2.51615         6.53296
   C      -12.58267        -0.54230         6.67570
   C      -12.44681         0.75783         6.18629
   C      -11.13951         0.90047         5.50603
   O      -10.72106         1.93256         5.01724
   C      -13.44761         1.69468         6.36355
   C      -14.59471         1.30065         7.04044
   C      -14.73110         0.00666         7.52507
   C      -13.72617        -0.93538         7.34462
   C       -8.42551        -2.53690         6.91044
   C       -7.37485        -3.37788         7.26053
   C       -6.20207        -3.42472         6.52323
   C       -6.04200        -2.60731         5.41272
   C       -8.78850         0.90658         3.26769
   N       -7.94358         1.26644         2.29027
   C       -8.10731         2.25004         1.38114
   S       -9.53526         3.23319         1.33683
   C       -8.85786         4.11159         0.00009
   N       -9.61729         5.14365        -0.55931
   O       -9.13115         5.76441        -1.48857
   O      -10.71780         5.34615        -0.07385
   C       -7.61733         3.67404        -0.37793
   C       -7.15533         2.59444         0.40248
   C       -5.90985         1.91154         0.24292
   C       -4.89033         2.34330        -0.54803
   C       -3.66635         1.67245        -0.73709
   C       -2.47003         2.24573        -1.17412
   C       -2.16382         3.55693        -1.59538
   C       -0.87565         3.87120        -1.91021
   C        0.16664         2.91627        -1.80489
   C       -0.08213         1.63672        -1.41159
   C       -1.40875         1.26589        -1.09874
   C       -1.93342         0.06993        -0.63016
   C       -3.38632         0.24576        -0.49684
   C       -4.28647        -0.74297        -0.52165
   N       -1.25794        -1.11253        -0.51191
   C       -1.50843        -2.08778         0.38744
   S       -2.33951        -1.76627         1.88369
   C       -1.98950        -3.39271         2.40539
   N       -2.46039        -3.79136         3.65039
   O       -2.23962        -4.93529         4.01362
   O       -3.07223        -2.95491         4.30376
   C       -1.27611        -4.11995         1.48967
   C       -1.01390        -3.40397         0.30874
   C       -0.35981        -3.98085        -0.82597
   C       -0.44299        -3.54716        -2.10637
   C        0.27620        -4.17685        -3.15168
   C        0.32068        -3.79362        -4.45364
   C        0.72941        -4.78680        -5.48563
   O        1.37777        -5.79204        -5.31140
   C        0.09996        -4.30605        -6.72947
   C       -0.49162        -3.04606        -6.50624
   C       -0.15279        -2.60609        -5.14429
   C        0.05950        -1.31382        -4.74104
   C       -0.19208        -0.08318        -5.53174
   O       -1.08779         0.13780        -6.31523
   C        0.84195         0.88737        -5.09888
   C        1.51377         0.37619        -3.98527
   C        0.89832        -0.91177        -3.59293
   O        1.04687        -1.45590        -2.51392
   C        2.57211         1.05823        -3.41491
   C        2.93777         2.27559        -3.97491
   C        2.25232         2.79715        -5.06383
   C        1.19265         2.10850        -5.64109
   C       -1.22865        -2.45812        -7.52081
   C       -1.32431        -3.11299        -8.74310
   C       -0.70977        -4.33604        -8.96392
   C        0.00565        -4.95194        -7.94646
   H      -13.33364         2.69661         5.97919
   H      -15.39456         2.01048         7.19118
   H      -15.63282        -0.27051         8.05096
   H      -13.82262        -1.94332         7.71812
   H       -9.31467        -2.52535         7.51602
   H       -7.47809        -4.00289         8.13532
   H       -5.40148        -4.08533         6.81850
   H       -5.11765        -2.59131         4.85604
   H       -9.71788         1.45284         3.34848
   H       -7.06304         0.71278         2.28848
   H       -7.08406         4.11735        -1.19831
   H       -5.76113         1.01687         0.82908
   H       -4.97691         3.30685        -1.03118
   H       -2.94564         4.29746        -1.66613
   H       -0.62581         4.86926        -2.23783
   H        1.17387         3.22577        -2.04024
   H        0.71404         0.91457        -1.31575
   H       -4.00021        -1.78037        -0.47100
   H       -5.33720        -0.54360        -0.63486
   H       -0.41104        -1.22891        -1.07157
   H       -0.98554        -5.14074         1.66071
   H        0.23539        -4.86036        -0.61701
   H       -1.09927        -2.73534        -2.38201
   H        0.78490        -5.10594        -2.91738
   H        3.09888         0.64959        -2.56582
   H        3.76570         2.82734        -3.55433
   H        2.55303         3.75064        -5.47184
   H        0.66266         2.50204        -6.49452
   H       -1.72968        -1.51633        -7.37254
   H       -1.89691        -2.65598        -9.53649
   H       -0.79822        -4.81626        -9.92686
   H        0.47891        -5.91173        -8.08611
*
