# ORCA input file
# SCF done       -172.736904638065          0.000504639421
! CAM-B3LYP def2-SVP def2/J RIJCOSX Grid4 TightSCF
%maxcore 5000
%tddft
    Mode sTDDFT
    Ethresh 5.0
    maxcore 5000
end

%pal
  nprocs 6
  end
* xyz 0 1
   C      -11.30447         3.63263        -7.38734
   C      -11.38224         2.34441        -7.85873
   C      -10.94810         1.94119        -9.13750
   N      -10.61825         1.54527       -10.16415
   C      -11.89346         1.23755        -7.15188
   N      -12.28891         0.28045        -6.65370
   C      -10.76071         4.76513        -8.13341
   C      -10.82517         5.91932        -7.31678
   C      -10.38784         7.15190        -7.73521
   C       -9.86166         7.25302        -9.02733
   C       -9.80244         6.09550        -9.83796
   C      -10.24349         4.84803        -9.41265
   S       -9.12058         6.44372       -11.39864
   C       -8.92728         8.11656       -10.94460
   C       -9.35048         8.40236        -9.69098
  Br       -8.18723         9.32650       -12.17231
   C      -11.42164         5.56356        -6.01269
   O      -11.61061         6.32865        -5.08730
   C      -11.72449         4.11746        -6.09147
   C      -12.32224         3.38754        -5.09134
   C      -12.71798         3.92295        -3.85706
   C      -13.33220         3.18940        -2.88033
   C      -13.73041         3.76688        -1.66185
   O      -13.49319         5.08394        -1.42402
   C      -13.98423         5.40105        -0.20732
   C      -14.56537         4.26950         0.36241
   C      -14.39789         3.22173        -0.55899
   O      -14.79879         1.94409        -0.42569
   O      -15.19819         4.14232         1.55843
   C      -13.85093         6.72099         0.28909
   C      -13.24931         7.70770        -0.42303
   C      -13.06422         9.02576         0.05642
   C      -12.42513         9.98648        -0.65057
   N      -12.22607        11.23478        -0.14354
   C      -11.57222        12.26893        -0.71330
   S      -10.93919        12.18283        -2.32156
   C      -10.34666        13.81153        -2.15571
   N       -9.66912        14.35692        -3.24287
   O       -9.24675        15.49673        -3.14051
   O       -9.54638        13.64287        -4.22819
   C      -10.62160        14.37428        -0.93743
   C      -11.32697        13.50779        -0.08258
   C      -11.74743        13.76230         1.25572
   C      -11.52678        14.87377         2.00363
   C      -11.94554        15.03406         3.34437
   C      -12.67849        14.19008         4.14107
   C      -12.99594        14.43990         5.50369
   C      -13.73082        13.47269         6.11437
   C      -14.06688        12.38579         5.27432
   S      -13.38908        12.64568         3.67955
   C      -14.81342        11.26968         5.57404
   C      -15.37942        10.92272         6.82523
   C      -16.09342         9.76904         6.81106
   C      -16.15773         9.12711         5.54307
   S      -15.21635        10.05419         4.37372
   C      -16.87038         8.00440         5.24490
   C      -16.98744         7.43308         3.94894
   C      -17.81073         6.41130         3.63494
   C      -18.67696         5.73370         4.65644
   C      -18.00041         5.89015         2.23958
   N      -17.11087         6.45609         1.24613
   C      -17.20478         5.96218        -0.05065
   C      -16.90252         6.64827        -1.14350
   H      -10.45037         8.01202        -7.08710
   H      -10.17600         3.99815       -10.07070
   H       -9.30546         9.38127        -9.24948
   H      -12.51419         2.33499        -5.25472
   H      -12.53412         4.97052        -3.67272
   H      -13.54304         2.13747        -3.00947
   H      -15.22027         1.84643         0.43859
   H      -15.43671         5.02261         1.88134
   H      -14.24039         6.91497         1.27854
   H      -12.87412         7.47531        -1.40909
   H      -13.43860         9.26035         1.04588
   H      -12.03398         9.80426        -1.64058
   H      -12.58611        11.39162         0.79251
   H      -10.31731        15.37372        -0.68793
   H      -12.28401        12.95593         1.72834
   H      -10.97722        15.70103         1.57796
   H      -11.63836        15.95283         3.82807
   H      -12.65984        15.33851         5.99081
   H      -14.04958        13.51519         7.14035
   H      -15.23850        11.53787         7.69580
   H      -16.59549         9.35310         7.66681
   H      -17.41656         7.55073         6.05902
   H      -16.38108         7.89685         3.18218
   H      -19.40102         6.43318         5.07379
   H      -18.07472         5.34739         5.47713
   H      -19.22201         4.90487         4.21215
   H      -19.06214         6.05286         1.97550
   H      -17.84317         4.80364         2.24394
   H      -17.09177         7.46903         1.26035
   H      -17.49047         4.92000        -0.10602
   H      -16.61415         7.68466        -1.10136
   H      -16.91121         6.18537        -2.11139
*
