# ORCA input file
# SCF done       -168.903801366001          0.004786709555
! CAM-B3LYP def2-SVP def2/J RIJCOSX Grid4 TightSCF
%maxcore 5000
%tddft
    Mode sTDDFT
    Ethresh 5.0
    maxcore 5000
end

%pal
  nprocs 6
  end
* xyz 0 1
   C       -9.39411         1.22304         5.19192
   C       -9.00536         2.48903         5.53540
   C       -9.86319         3.43681         6.13497
   N      -10.51583         4.24721         6.61825
   C       -7.73006         3.04647         5.29826
   N       -6.73056         3.57980         5.11706
   C      -10.73982         0.67380         5.34291
   C      -10.73974        -0.62151         4.75729
   C      -11.85548        -1.42230         4.73365
   C      -13.02508        -0.92068         5.32099
   C      -13.01604         0.37107         5.89296
   C      -11.88541         1.18603         5.90934
   S      -14.56421         0.78631         6.56202
   C      -15.19579        -0.75930         6.06849
   C      -14.29438        -1.54929         5.43654
  Br      -16.98562        -1.18838         6.43224
   C       -9.40564        -0.87072         4.23609
   O       -9.16834        -1.98792         3.56489
   C       -8.57749         0.19987         4.55245
   C       -7.15474         0.22228         4.51557
   C       -6.34980        -0.74113         4.00167
   C       -4.91856        -0.86673         4.22879
   C       -4.03955        -0.07321         4.93869
   C       -2.71755        -0.48214         5.04040
   C       -2.29671        -1.66787         4.45997
   C       -3.17419        -2.47701         3.75315
   C       -4.49196        -2.07118         3.62622
   C       -5.64098        -2.65218         2.94621
   C       -6.73301        -1.87420         3.18399
   C       -8.10560        -2.01140         2.61365
   C       -5.58022        -3.88138         2.09019
   C       -5.53100        -5.16452         2.93731
   O       -6.34268        -5.54976         3.71692
   O       -4.39800        -5.85515         2.64116
   C       -3.68248        -5.17887         1.69323
   C       -4.32329        -4.00276         1.29219
   C       -3.76687        -3.16057         0.34934
   C       -2.54048        -3.55537        -0.15262
   C       -1.89051        -4.71869         0.26240
   C       -2.45328        -5.57007         1.19491
   C       -0.56846        -4.75995        -0.42781
   C       -0.66259        -3.52947        -1.34210
   O        0.15677        -3.16240        -2.13335
   O       -1.80967        -2.86911        -1.09617
   C        0.58466        -4.53105         0.50509
   S        0.39314        -4.58493         2.24560
   C        2.07187        -4.20871         2.54076
   C        2.72657        -4.04067         1.34396
   C        1.87279        -4.20308         0.20571
   N        2.68101        -3.97728        -0.87696
   C        3.91880        -3.68691        -0.36848
   N        3.99733        -3.72693         0.92531
   N        2.64806        -4.13844         3.78044
   C        2.06048        -4.17123         4.99898
   S        0.33868        -4.22632         5.17348
   C        0.52769        -4.21413         6.90251
   N       -0.63872        -4.23859         7.65848
   O       -0.53810        -4.26470         8.87325
   O       -1.69255        -4.22755         7.03548
   C        1.83722        -4.17980         7.30268
   C        2.73923        -4.15317         6.22767
   C        4.18372        -4.12442         6.34713
   C        4.86024        -4.20056         7.48854
   H      -11.83456        -2.40450         4.28922
   H      -11.92864         2.16504         6.35697
   H      -14.51443        -2.53446         5.06826
   H       -6.67887         1.03024         5.05021
   H       -4.36337         0.84862         5.39784
   H       -2.01089         0.12612         5.58391
   H       -1.26722        -1.97442         4.56197
   H       -2.81626        -3.40418         3.33460
   H       -8.23319        -2.97152         2.11053
   H       -8.28163        -1.19875         1.89096
   H       -6.47143        -3.93174         1.45730
   H       -4.24414        -2.24820         0.03533
   H       -1.96512        -6.46914         1.52918
   H       -0.40794        -5.66531        -1.02410
   H        2.36743        -3.88610        -1.82981
   H        4.75250        -3.45814        -1.00315
   H        3.65399        -4.01610         3.75421
   H        2.11417        -4.16845         8.34040
   H        4.73816        -4.03568         5.42071
   H        4.37637        -4.29731         8.44391
   H        5.93587        -4.17588         7.49899
*
