# ORCA input file
# SCF done       -176.949547184054          0.000454039378
! CAM-B3LYP def2-SVP def2/J RIJCOSX Grid4 TightSCF
%maxcore 5000
%tddft
    Mode sTDDFT
    Ethresh 5.0
    maxcore 5000
end

%pal
  nprocs 6
  end
* xyz 0 1
   C      -15.50017        -9.68727        -2.74833
   C      -16.40654        -8.66655        -2.83215
   F      -17.71165        -8.90533        -2.63070
   C      -15.98700        -7.35729        -3.13154
   F      -16.89591        -6.37025        -3.18475
   C      -14.66650        -7.08764        -3.35970
   C      -13.70965        -8.11465        -3.27335
   C      -14.12945        -9.43831        -2.95618
   C      -13.17970       -10.48176        -2.84380
   C      -11.85231       -10.20599        -3.03504
   C      -11.44471        -8.87832        -3.35646
   C      -12.33632        -7.85285        -3.48018
   C       -9.98531        -8.85584        -3.49587
   O       -9.28132        -7.88338        -3.77070
   C       -9.52323       -10.21816        -3.23596
   C      -10.66466       -11.05606        -2.96473
   C      -10.65898       -12.40252        -2.69186
   C      -11.81639       -13.16195        -2.43516
   N      -12.72557       -13.82971        -2.21847
   C       -9.49253       -13.18966        -2.63962
   N       -8.56690       -13.86785        -2.58903
   C       -8.18009       -10.53465        -3.25568
   N       -7.29369        -9.57272        -3.53298
   C       -5.94475        -9.64103        -3.58063
   S       -5.06732       -11.09853        -3.23390
   C       -3.58418       -10.23418        -3.49562
   N       -2.38476       -10.93461        -3.35341
   O       -1.34582       -10.32129        -3.53719
   O       -2.46592       -12.11527        -3.05306
   C       -3.76246        -8.91551        -3.82653
   C       -5.11748        -8.54734        -3.88602
   C       -5.63548        -7.24820        -4.21938
   C       -4.91641        -6.12111        -4.37702
   C       -5.56280        -4.88376        -4.70680
   C       -4.99348        -3.67489        -4.80599
   C       -3.54048        -3.39024        -4.58550
   C       -5.80666        -2.44800        -5.16593
   N       -7.11287        -2.70026        -5.71435
   C       -8.22084        -3.00062        -4.99665
   C       -8.31459        -3.03564        -3.63856
   C       -9.48531        -3.27506        -2.88998
   C      -10.78208        -3.48174        -3.29095
   C      -11.87787        -3.65376        -2.40812
   C      -13.09008        -3.78930        -3.01483
   C      -13.03241        -3.74864        -4.42550
   S      -11.37495        -3.53492        -4.94955
   C      -14.07203        -3.85194        -5.33112
   C      -15.45025        -4.00722        -5.06699
   C      -16.22977        -4.08168        -6.18157
   C      -15.51604        -3.95760        -7.39847
   S      -13.79967        -3.77569        -7.06105
   C      -15.98084        -3.87508        -8.68681
   C      -17.31758        -4.05276        -9.10820
   S      -17.89444        -2.99473       -10.37688
   C      -19.49974        -3.53005       -10.19900
   C      -19.61215        -4.52133        -9.24942
   C      -18.35785        -4.87331        -8.64990
   C      -18.29039        -6.01766        -7.80380
   C      -19.47822        -6.62836        -7.46863
   C      -20.72723        -6.20587        -7.95253
   C      -20.81478        -5.18516        -8.86298
   O      -21.94567        -4.73814        -9.46639
   C      -23.16439        -5.36390        -9.14278
   C      -17.01163        -6.60509        -7.42443
   C      -16.79266        -7.35556        -6.35184
   H      -15.83964       -10.68453        -2.51598
   H      -14.35617        -6.08562        -3.60577
   H      -13.52848       -11.47216        -2.60047
   H      -12.00172        -6.85560        -3.72273
   H       -7.80450       -11.52840        -3.05188
   H       -7.74372        -8.65219        -3.70963
   H       -2.93302        -8.26246        -4.02455
   H       -6.70742        -7.17267        -4.34755
   H       -3.84510        -6.12918        -4.25122
   H       -6.62882        -4.96822        -4.87416
   H       -3.09327        -4.09975        -3.89642
   H       -3.40729        -2.38705        -4.18518
   H       -2.99916        -3.44607        -5.53091
   H       -5.24415        -1.86075        -5.89967
   H       -5.92002        -1.82389        -4.27164
   H       -7.14291        -2.90413        -6.70021
   H       -9.09111        -3.19337        -5.60521
   H       -7.41987        -2.88052        -3.05328
   H       -9.34831        -3.28533        -1.81523
   H      -11.73513        -3.65754        -1.34146
   H      -14.01969        -3.90014        -2.48484
   H      -15.84041        -4.04380        -4.06565
   H      -17.30057        -4.16425        -6.16178
   H      -15.28541        -3.52868        -9.44106
   H      -20.28593        -3.10221       -10.78648
   H      -19.45585        -7.50307        -6.83752
   H      -21.60586        -6.73966        -7.62747
   H      -23.92352        -4.85681        -9.73607
   H      -23.40071        -5.25331        -8.07977
   H      -23.14925        -6.42695        -9.40329
   H      -16.20224        -6.42232        -8.11919
   H      -17.55876        -7.53999        -5.61828
   H      -15.82947        -7.79858        -6.16161
*
