# ORCA input file
# SCF done       -199.775164215500          0.000751742838
! CAM-B3LYP def2-SVP def2/J RIJCOSX Grid4 TightSCF
%maxcore 5000
%tddft
    Mode sTDDFT
    Ethresh 5.0
    maxcore 5000
end

%pal
  nprocs 6
  end
* xyz 0 1
   C       -3.40963        -3.52032        -7.30857
   C       -2.49200        -3.35381        -8.30804
   F       -2.89889        -3.23533        -9.57956
   C       -1.11404        -3.30498        -8.01734
   F       -0.24056        -3.14224        -9.01991
   C       -0.67210        -3.42074        -6.72874
   C       -1.59263        -3.59197        -5.67734
   C       -2.98678        -3.64393        -5.97017
   C       -3.92727        -3.83016        -4.92959
   C       -3.48029        -3.95881        -3.64267
   C       -2.08643        -3.90293        -3.36006
   C       -1.15413        -3.72450        -4.34006
   C       -1.87592        -4.09646        -1.91761
   O       -0.81224        -4.08205        -1.32940
   C       -3.20962        -4.38381        -1.35357
   C       -4.19008        -4.16188        -2.38675
   C       -5.52506        -3.93231        -2.17033
   C       -6.41908        -3.50249        -3.16793
   N       -7.18339        -3.10412        -3.92696
   C       -6.10603        -3.93956        -0.88802
   N       -6.60892        -3.87643         0.14291
   C       -3.43305        -4.87486        -0.09343
   N       -2.59238        -4.72147         0.95378
   C       -1.67061        -3.71260         1.06482
   S       -0.13654        -3.99086         1.81155
   C        0.34392        -2.38287         1.38285
   N        1.65050        -1.99946         1.68902
   O        2.00148        -0.87218         1.39127
   O        2.35478        -2.84320         2.22366
   C       -0.63620        -1.67229         0.73757
   C       -1.81395        -2.41581         0.56813
   C       -3.01616        -1.94163        -0.09910
   C       -2.95819        -1.26408        -1.25184
   C       -4.05483        -0.81923        -2.08435
   C       -5.23082        -0.29477        -1.72294
   C       -5.66724        -0.08962        -0.30954
   C       -6.20999         0.16786        -2.78380
   N       -6.50454         1.58725        -2.71183
   C       -5.60976         2.56951        -2.93633
   C       -4.28950         2.35816        -3.19620
   C       -3.29256         3.33730        -3.32390
   C       -1.96170         2.98972        -3.34450
   C       -0.80559         3.80029        -3.36423
   C        0.36865         3.11746        -3.20565
   C        0.20331         1.72572        -3.05090
   S       -1.47974         1.30103        -3.18996
   C        1.12332         0.73738        -2.73186
   C        2.50306         0.81768        -2.47707
   C        3.05963        -0.35566        -2.04083
   C        2.14172        -1.41714        -1.92181
   S        0.56213        -0.90039        -2.45132
   C        2.26092        -2.69674        -1.40502
   C        3.40415        -3.24102        -0.84063
   C        3.44847        -4.41006        -0.09977
   C        4.55598        -4.61759         0.85614
   O        5.64446        -4.08673         0.84749
   C        4.03224        -5.58968         1.84435
   C        4.60607        -6.04031         2.99470
   C        3.88767        -6.94250         3.81411
   C        2.58612        -7.36199         3.41697
   C        1.87493        -8.25655         4.24025
   C        2.42933        -8.71542         5.40214
   C        3.71590        -8.30176         5.79311
   C        4.43128        -7.43370         5.01591
   F        4.23731        -8.76823         6.93977
   F        1.74493        -9.56836         6.18295
   C        2.02245        -6.88494         2.21062
   C        2.73469        -6.00990         1.43819
   C        2.42648        -5.37885         0.15550
   C        1.40751        -5.76762        -0.69505
   C        1.39039        -5.45664        -2.06633
   N        1.38747        -5.29226        -3.20431
   C        0.28586        -6.49788        -0.28211
   N       -0.70273        -6.99332         0.04157
   H       -4.46026        -3.55846        -7.55104
   H        0.38502        -3.39057        -6.51704
   H       -4.97584        -3.88621        -5.17770
   H       -0.10086        -3.71441        -4.10383
   H       -4.32587        -5.45030         0.11968
   H       -2.55033        -5.46487         1.64066
   H       -0.50547        -0.65630         0.41310
   H       -3.96106        -2.25024         0.32804
   H       -1.98227        -1.08320        -1.68362
   H       -3.82748        -0.88796        -3.14356
   H       -4.81000        -0.02515         0.35515
   H       -6.29143        -0.92326         0.01532
   H       -6.25474         0.82213        -0.22138
   H       -7.15295        -0.36924        -2.65516
   H       -5.81689        -0.07465        -3.77735
   H       -7.45596         1.84998        -2.51799
   H       -6.00263         3.57540        -2.86554
   H       -3.94153         1.34006        -3.23891
   H       -3.55745         4.38521        -3.35127
   H       -0.87160         4.86914        -3.47016
   H        1.33839         3.58071        -3.17095
   H        3.05070         1.73566        -2.59695
   H        4.09436        -0.46673        -1.77333
   H        1.34119        -3.26261        -1.37195
   H        4.31717        -2.65875        -0.83433
   H        5.59297        -5.71168         3.28216
   H        0.88855        -8.58737         3.95441
   H        5.41617        -7.12528         5.32977
   H        1.03516        -7.21863         1.93199
*
