# ORCA input file
# SCF done       -157.752871162401          0.000537981514
! CAM-B3LYP def2-SVP def2/J RIJCOSX Grid4 TightSCF
%maxcore 5000
%tddft
    Mode sTDDFT
    Ethresh 5.0
    maxcore 5000
end

%pal
  nprocs 6
  end
* xyz 0 1
   C        2.79586        -4.18783        -9.23720
   C        3.84525        -3.95729        -8.43866
   C        5.15909        -3.51370        -8.81483
   C        6.02875        -3.40987        -7.78864
   C        5.48681        -3.77080        -6.51965
   S        3.79158        -4.18893        -6.68614
   C        6.12656        -3.83718        -5.31048
   C        7.45247        -3.43653        -4.99608
   C        7.77668        -3.61097        -3.69191
   C        6.73372        -4.17427        -2.89893
   S        5.32425        -4.49567        -3.87840
   C        6.73748        -4.42744        -1.56280
   C        5.58542        -4.98599        -0.92637
   N        5.56757        -5.06675         0.41109
   C        4.46221        -5.53061         0.95970
   C        3.36706        -5.94255         0.21596
   C        3.48586        -5.88143        -1.18094
   N        4.59639        -5.38561        -1.72791
   C        2.44080        -6.37216        -2.04470
   C        2.63672        -6.57512        -3.36633
   C        1.68742        -7.05228        -4.29353
   S        0.03258        -7.34949        -3.86929
   C       -0.39299        -7.82219        -5.48306
   C        0.71615        -7.74542        -6.33433
   C        1.89841        -7.32360        -5.65637
   C        3.10911        -7.22958        -6.36040
   C        3.14444        -7.49534        -7.71191
   C        4.36109        -7.37925        -8.50388
   C        5.56502        -7.02914        -8.06324
   C        1.94897        -7.88830        -8.37322
   C        0.76370        -8.02652        -7.71419
   C       -1.69936        -8.25276        -5.79950
   N       -2.71887        -8.28860        -4.82722
   C       -3.79098        -8.77917        -5.46792
   N       -5.07291        -9.14846        -5.36103
   C       -5.42764        -9.62183        -6.64312
   N       -4.42359        -9.54329        -7.50206
   C       -3.39725        -9.02797        -6.81281
   N       -2.10178        -8.68612        -6.97821
   C       -6.71664       -10.13094        -6.89413
   C       -7.11166       -10.65881        -8.08808
   C       -8.40613       -11.18751        -8.24704
   C       -8.89534       -11.78667        -9.37866
   C      -10.21096       -12.36549        -9.54670
   C      -11.23594       -12.38036        -8.63156
   C      -12.49663       -12.96761        -8.86220
   N      -13.54216       -13.42774        -8.98180
   C      -11.19646       -11.81961        -7.33928
   N      -11.25419       -11.39023        -6.27466
   C      -10.27425       -12.94522       -10.88543
   C       -9.04120       -12.71337       -11.54134
   C       -8.13390       -11.97535       -10.63580
   O       -7.00600       -11.61366       -10.89213
   C       -8.78895       -13.14320       -12.82071
   C       -9.80246       -13.84036       -13.48712
   C      -11.03084       -14.06932       -12.82389
   C      -11.28665       -13.63174       -11.53027
   S      -12.14304       -14.95360       -13.82555
   C      -10.95765       -15.00244       -15.10333
   C       -9.78963       -14.38908       -14.79893
  Br      -11.37416       -15.86051       -16.71863
   H        2.86828        -4.03322       -10.29934
   H        1.85569        -4.53446        -8.84854
   H        5.39079        -3.30121        -9.84354
   H        7.05588        -3.10596        -7.88904
   H        8.11370        -3.01359        -5.73233
   H        8.72599        -3.35519        -3.25466
   H        7.58877        -4.18770        -0.94740
   H        4.45824        -5.57667         2.04202
   H        2.47269        -6.32049         0.68401
   H        1.49279        -6.60918        -1.57960
   H        3.61480        -6.35236        -3.76418
   H        4.00222        -6.94693        -5.82959
   H        4.23516        -7.59928        -9.55704
   H        5.76846        -6.79803        -7.03161
   H        6.40566        -6.96191        -8.73230
   H        1.99504        -8.09081        -9.43353
   H       -0.14127        -8.34215        -8.20708
   H       -2.61708        -8.00034        -3.86801
   H       -5.67972        -9.12035        -4.55810
   H       -7.41459       -10.10698        -6.06492
   H       -6.41345       -10.68327        -8.91023
   H       -9.05631       -11.12355        -7.38320
   H       -7.83799       -12.94951       -13.29173
   H      -12.23949       -13.83320       -11.07038
   H       -8.95206       -14.32555       -15.46937
*
