# ORCA input file
# SCF done       -175.701230723296          0.000887192225
! CAM-B3LYP def2-SVP def2/J RIJCOSX Grid4 TightSCF
%maxcore 5000
%tddft
    Mode sTDDFT
    Ethresh 5.0
    maxcore 5000
end

%pal
  nprocs 6
  end
* xyz 0 1
   C       -6.47834         0.43519        -2.69683
   C       -6.65332        -0.28184        -1.57819
   C       -7.15704         0.16670        -0.31150
   C       -7.22782        -0.79362         0.63778
   C       -6.79260        -2.07697         0.20947
   S       -6.27251        -2.00793        -1.46698
   C       -6.75952        -3.24442         0.93074
   C       -7.12716        -3.46152         2.28130
   C       -6.97461        -4.74591         2.69430
   C       -6.47975        -5.64435         1.70763
   S       -6.22051        -4.74977         0.21159
   C       -6.22363        -6.96843         1.93459
   C       -5.72600        -7.97038         1.05802
   C       -5.35896        -9.23632         1.59918
   O       -5.56291        -9.39631         2.93699
   C       -5.24451       -10.63312         3.53967
   C       -5.62445       -10.53895         5.00948
   C       -4.81079       -10.19662         0.77942
   C       -4.62494        -9.98807        -0.59651
   C       -5.06205        -8.74988        -1.15317
   C       -5.57962        -7.78072        -0.32413
   O       -4.89852        -8.61208        -2.49316
   C       -5.26147        -7.41308        -3.15310
   C       -6.75840        -7.30277        -3.42206
   C       -3.97611       -10.91165        -1.46063
   C       -3.40673       -12.11749        -1.16548
   C       -2.63752       -12.88792        -2.05897
   C       -2.14002       -12.52139        -3.29128
   C       -1.32910       -13.32072        -4.13657
   C       -0.90975       -12.70788        -5.28260
   C       -1.37131       -11.38323        -5.41493
   S       -2.35440       -10.94906        -4.03366
   C       -1.20104       -10.44314        -6.41179
   C       -0.51131       -10.50274        -7.64109
   C       -0.59523        -9.35969        -8.37721
   C       -1.36953        -8.32415        -7.78213
   S       -1.94103        -8.86811        -6.20778
   C       -1.73817        -7.14253        -8.35801
   C       -2.58770        -6.16661        -7.72635
   C       -3.63018        -5.45663        -8.36440
   O       -4.01308        -5.51927        -9.67839
   C       -3.09265        -5.61752       -10.74345
   C       -1.99721        -4.55825       -10.69615
   C       -4.50178        -4.70533        -7.58791
   C       -4.39732        -4.57923        -6.20331
   C       -3.28685        -5.20951        -5.57801
   C       -2.42961        -5.96862        -6.34033
   O       -3.14739        -4.99798        -4.24443
   C       -2.07412        -5.60468        -3.55038
   C       -2.15323        -5.15566        -2.09871
   C       -5.34024        -3.86696        -5.39846
   C       -6.35469        -3.07459        -5.83805
   C       -7.24667        -2.43616        -4.95746
   C       -8.22762        -1.55744        -5.32952
   C       -9.13240        -0.88375        -4.46887
   C       -9.98755        -0.03928        -5.10117
   C       -9.81726         0.00858        -6.50832
   S       -8.52432        -1.07044        -6.99547
   C      -10.51801         0.76674        -7.41485
   C      -11.57452         1.67954        -7.14579
   C      -12.07699         2.29314        -8.24043
   C      -11.45293         1.91085        -9.47429
   S      -10.18634         0.71988        -9.13821
   C      -11.73795         2.34905       -10.70845
   H       -6.72560         1.48184        -2.71985
   H       -6.09367        -0.00554        -3.59833
   H       -7.44506         1.19358        -0.17028
   H       -7.58307        -0.63085         1.64049
   H       -7.48707        -2.66293         2.90502
   H       -7.20075        -5.09245         3.68774
   H       -6.39921        -7.30240         2.94884
   H       -4.16924       -10.83690         3.43876
   H       -5.80421       -11.44498         3.05479
   H       -5.07027        -9.73445         5.48598
   H       -5.39640       -11.47513         5.51121
   H       -6.68731       -10.33269         5.10500
   H       -4.49803       -11.14385         1.18667
   H       -5.90188        -6.84234        -0.73837
   H       -4.72422        -7.46229        -4.10484
   H       -4.90632        -6.53778        -2.59887
   H       -7.09683        -8.16678        -3.98798
   H       -6.95154        -6.40332        -4.00076
   H       -7.32276        -7.25462        -2.49421
   H       -3.93492       -10.56651        -2.48020
   H       -3.53053       -12.53996        -0.17642
   H       -2.35291       -13.87881        -1.72515
   H       -1.07381       -14.33149        -3.86763
   H       -0.28342       -13.17136        -6.02453
   H        0.01598       -11.38781        -7.95167
   H       -0.14086        -9.22781        -9.34412
   H       -1.39450        -6.98911        -9.36910
   H       -3.71438        -5.46763       -11.63164
   H       -2.66621        -6.62748       -10.80381
   H       -2.44410        -3.56687       -10.68900
   H       -1.35829        -4.65144       -11.57047
   H       -1.38960        -4.66547        -9.80026
   H       -5.32176        -4.23584        -8.10710
   H       -1.56953        -6.42396        -5.87790
   H       -1.11703        -5.28720        -3.98699
   H       -2.14852        -6.69830        -3.62021
   H       -2.11405        -4.07103        -2.04450
   H       -1.32117        -5.57300        -1.53947
   H       -3.08298        -5.48804        -1.64562
   H       -5.20548        -3.97307        -4.33023
   H       -6.49823        -2.89295        -6.89476
   H       -7.14448        -2.64237        -3.90013
   H       -9.11108        -1.04881        -3.40584
   H      -10.73551         0.55076        -4.60231
   H      -11.92479         1.84861        -6.14262
   H      -12.87650         3.01283        -8.23072
   H      -12.51602         3.07475       -10.86687
   H      -11.20509         1.99490       -11.57152
*
