# ORCA input file
# SCF done       -161.518090358781          0.000282037745
! CAM-B3LYP def2-SVP def2/J RIJCOSX Grid4 TightSCF
%maxcore 5000
%tddft
    Mode sTDDFT
    Ethresh 5.0
    maxcore 5000
end

%pal
  nprocs 6
  end
* xyz 0 1
   C        3.02280         6.89712        10.26385
   N        4.21067         6.88974         9.61394
   C        3.99084         6.88853         8.26179
   C        2.61951         6.89550         8.06364
   C        2.01731         6.90120         9.32872
   C        5.03057         6.87782         7.33607
   C        5.94031         6.86354         6.53281
   C        6.98863         6.83981         5.62055
   C        6.81543         6.79772         4.28047
   C        7.87871         6.75969         3.33775
   S        9.54617         6.77159         3.84761
   C       10.10491         6.68242         2.19871
   C        9.03656         6.63540         1.32044
   C        7.78557         6.69408         1.95829
   C        6.49509         6.66546         1.19720
   C        6.72599         6.94915        -0.28537
   C        7.86739         6.08208        -0.81304
   N        7.99489         6.23306        -2.25774
   C        9.17686         6.53454        -0.16416
   C       11.48972         6.67850         1.87070
   C       12.48418         6.73026         2.78178
   C       13.89973         6.75378         2.53873
   C       14.58752         6.32170         1.46890
   C       13.99132         5.66541         0.26297
   C       16.08617         6.51397         1.42434
   N       16.40621         7.66813         0.61375
   C       17.01068         8.77840         1.04192
   C       17.12711         9.91437         0.28955
   C       17.84577        11.04813         0.67988
   C       17.94019        12.18575        -0.08951
   C       18.71366        13.34281         0.14008
   C       18.62841        14.28188        -0.84958
   C       17.76193        13.92013        -1.89987
   S       17.06487        12.35275        -1.60760
   C       17.44014        14.60960        -3.06129
   C       17.98441        15.77676        -3.61970
   C       17.46141        16.08598        -4.84660
   C       16.48157        15.18333        -5.31467
   S       16.23165        13.93689        -4.13079
   C       15.74100        15.33174        -6.48498
   C       14.70289        14.55701        -6.97282
   C       14.24181        13.29369        -6.60503
   C       12.80341        12.99131        -6.75196
   O       11.96624        13.64368        -7.34239
   C       12.58279        11.74934        -5.97086
   C       11.41706        11.13079        -5.63162
   C       11.45896         9.99419        -4.78689
   C       12.71956         9.51446        -4.33226
   C       12.75420         8.39632        -3.47859
   C       11.58286         7.80501        -3.09859
   C       10.33063         8.25985        -3.52437
   C       10.28467         9.34007        -4.36537
   F       11.63375         6.73325        -2.26716
   C       13.91540        10.16301        -4.72243
   C       13.84410        11.26656        -5.52314
   C       14.88274        12.16341        -6.02725
   C       16.23712        11.87503        -6.04876
   C       17.17352        12.66542        -6.73601
   N       17.96231        13.28518        -7.29687
   C       16.80684        10.74095        -5.45063
   N       17.32290         9.84303        -4.94937
   H        2.96986         6.89856        11.33495
   H        5.12085         6.88579        10.04345
   H        2.12484         6.89703         7.11279
   H        0.96463         6.90742         9.53152
   H        7.99039         6.85105         6.03460
   H        5.81201         6.78178         3.87721
   H        5.79885         7.39882         1.61039
   H        6.03621         5.67701         1.31312
   H        6.98492         7.99873        -0.43375
   H        5.81007         6.74616        -0.84444
   H        7.66905         5.03374        -0.51857
   H        8.70577         5.59620        -2.60494
   H        7.12126         5.99588        -2.71654
   H        9.44194         7.51303        -0.57610
   H        9.97840         5.84113        -0.42606
   H       11.70510         6.68093         0.81469
   H       12.20062         6.80391         3.82549
   H       14.47635         7.15164         3.36662
   H       13.60607         6.39838        -0.44610
   H       13.16302         5.02216         0.55271
   H       14.73624         5.06098        -0.25186
   H       16.56798         5.63034         0.98719
   H       16.49370         6.67370         2.42422
   H       15.98507         7.69245        -0.30472
   H       17.44294         8.72908         2.03278
   H       16.65592         9.93959        -0.68434
   H       18.37716        11.03173         1.62248
   H       19.32390        13.44534         1.02059
   H       19.15598        15.21875        -0.84705
   H       18.75610        16.34266        -3.12897
   H       17.76536        16.93250        -5.43629
   H       15.94768        16.24773        -7.02478
   H       14.05785        15.04840        -7.69579
   H       10.46897        11.50818        -5.98481
   H       13.70264         8.01269        -3.13456
   H        9.43607         7.75756        -3.18455
   H        9.33224         9.71101        -4.71358
   H       14.85672         9.78394        -4.35793
*
