# ORCA input file
# SCF done       -206.900863971522          0.000770518764
! CAM-B3LYP def2-SVP def2/J RIJCOSX Grid4 TightSCF
%maxcore 5000
%tddft
    Mode sTDDFT
    Ethresh 5.0
    maxcore 5000
end

%pal
  nprocs 6
  end
* xyz 0 1
   C       -7.37627         0.57221         5.43791
   C       -6.94312        -0.71655         5.25954
   C       -6.90260        -1.68479         6.28513
   N       -6.84636        -2.51885         7.07188
   C       -6.45771        -1.26671         4.05448
   N       -6.04064        -1.79133         3.12184
   C       -7.83148         1.14062         6.70283
   C       -8.13159         2.51249         6.50377
   C       -8.58046         3.32996         7.51301
   C       -8.74610         2.76741         8.78198
   C       -8.44865         1.39640         8.97226
   C       -7.99164         0.57051         7.95115
   S       -8.73012         0.91497        10.61508
   C       -9.23198         2.51853        11.02509
   C       -9.19366         3.38086         9.98570
   C       -7.88831         2.85808         5.09743
   O       -8.03850         3.95543         4.58487
   C       -7.44096         1.62489         4.44022
   C       -7.16778         1.48839         3.10362
   C       -7.19558         2.44419         2.07873
   S       -7.55783         4.13819         2.23257
   C       -7.29626         4.41727         0.54130
   C       -6.95442         3.23296        -0.12195
   C       -6.90075         2.13650         0.73561
   S       -6.53574         0.47195         0.30243
   C       -6.28973         0.35130        -1.44592
   O       -6.10890        -0.74782        -1.88903
   C       -6.27352         1.54439        -2.37100
   O       -6.01368         1.39314        -3.53360
   S       -6.62659         3.19330        -1.85112
   C       -7.45923         5.75625         0.09967
   C       -7.24420         6.26030        -1.13667
   C       -7.39420         7.63783        -1.52399
   C       -6.96779         8.01516        -2.81093
   C       -7.05781         9.32597        -3.20408
   C       -7.58836        10.29598        -2.33392
   C       -8.03505         9.93436        -1.06932
   C       -7.93293         8.61787        -0.67511
   C       -7.54382        11.57983        -2.99261
   C       -6.98430        11.41016        -4.27152
   C       -6.63931         9.95829        -4.51135
   C       -5.13123         9.77386        -4.76381
   C       -4.27053        10.31520        -3.62868
   C       -7.43488         9.37903        -5.69612
   C       -8.94203         9.52779        -5.52700
   C       -6.81205        12.48774        -5.10403
   C       -7.18765        13.77244        -4.67542
   C       -7.75478        13.91846        -3.40039
   C       -7.93575        12.83992        -2.56156
   C       -6.96659        14.88711        -5.56225
   C       -7.15843        16.19016        -5.27097
   C       -6.91900        17.26718        -6.16765
   S       -6.36514        17.01161        -7.80007
   C       -6.36991        18.72147        -8.12986
   C       -6.78949        19.43350        -7.01760
   C       -7.08473        18.61854        -5.91351
   C       -7.54827        19.16943        -4.59868
   C       -7.25969        20.67445        -4.50304
   C       -7.91936        21.21295        -3.33530
   N       -8.46928        21.60985        -2.41619
   C       -7.75732        21.37779        -5.78245
   C       -7.66430        22.81324        -5.64327
   N       -7.55607        23.94678        -5.55145
   C       -6.90775        20.92743        -6.97961
   C       -5.97565        19.24779        -9.38942
   C       -5.58640        18.50215       -10.44738
   C       -5.18824        19.01793       -11.71668
   C       -4.80243        18.25342       -12.80930
   C       -4.48022        19.12433       -13.89066
   C       -4.05145        18.87715       -15.17199
   C       -3.81589        19.98474       -16.00720
   C       -3.38400        20.06980       -17.32315
   C       -3.30662        21.44755       -17.70189
   C       -3.69331        22.21020       -16.61577
   C       -4.02065        21.33734       -15.52987
   C       -4.44875        21.58670       -14.25327
   C       -4.68458        20.47728       -13.41442
   C       -5.11223        20.39810       -12.10057
   C       -2.89863        21.97212       -18.98318
   C       -2.51371        21.24817       -20.03048
   H       -8.79720         4.37047         7.32693
   H       -7.78096        -0.46690         8.14967
   H       -9.52972         2.71927        12.03589
   H       -9.46965         4.41771        10.05251
   H       -6.88748         0.49931         2.76145
   H       -7.77260         6.41894         0.89557
   H       -6.90088         5.60295        -1.92209
   H       -6.55939         7.26434        -3.47222
   H       -8.45215        10.67368        -0.40211
   H       -8.28189         8.33830         0.30639
   H       -4.86811        10.28404        -5.69263
   H       -4.92672         8.70977        -4.89821
   H       -4.44571        11.37946        -3.48720
   H       -3.21730        10.16692        -3.85516
   H       -4.49699         9.80353        -2.69581
   H       -7.18458         8.32137        -5.80103
   H       -7.12092         9.88882        -6.60934
   H       -9.28173         9.01215        -4.63139
   H       -9.45762         9.10259        -6.38490
   H       -9.21829        10.57675        -5.44455
   H       -6.38036        12.36518        -6.08730
   H       -8.06355        14.89582        -3.06361
   H       -8.37360        12.97559        -1.58386
   H       -6.59506        14.63678        -6.54891
   H       -7.51825        16.48075        -4.29430
   H       -7.04910        18.65527        -3.77358
   H       -8.62604        19.00006        -4.48811
   H       -6.18042        20.84366        -4.39953
   H       -8.80942        21.11380        -5.94862
   H       -5.90952        21.37502        -6.90404
   H       -7.36314        21.29577        -7.90224
   H       -5.99577        20.32512        -9.47232
   H       -5.56902        17.42386       -10.34501
   H       -4.75338        17.18031       -12.84154
   H       -3.89666        17.87093       -15.53596
   H       -3.14520        19.23679       -17.95899
   H       -3.74300        23.28347       -16.58012
   H       -4.60392        22.59275       -13.88874
   H       -5.34771        21.23529       -11.46874
   H       -2.92047        23.05241       -19.05915
   H       -2.47585        20.17270       -20.00406
   H       -2.22269        21.71054       -20.95765
*
