# ORCA input file
# SCF done       -165.710679234715          0.000671892620
! CAM-B3LYP def2-SVP def2/J RIJCOSX Grid4 TightSCF
%maxcore 5000
%tddft
    Mode sTDDFT
    Ethresh 5.0
    maxcore 5000
end

%pal
  nprocs 6
  end
* xyz 0 1
   C       -1.43866        -0.50137         4.04333
   C       -1.74881        -1.84530         4.04797
   C       -0.88235        -2.85397         4.50816
   N       -0.22833        -3.72937         4.86594
   C       -2.95876        -2.41894         3.61437
   N       -3.90746        -2.98307         3.28945
   C       -0.17795         0.06614         4.52314
   C       -0.23837         1.47420         4.39184
   C        0.79651         2.29756         4.75671
   C        1.95264         1.70263         5.27611
   C        2.00428         0.29674         5.40210
   C        0.95416        -0.53725         5.03385
   S        3.52432        -0.23078         6.06212
   C        4.06032         1.42566         6.15708
   C        3.15148         2.32746         5.71910
  Br        5.77209         1.80769         6.82584
   C       -1.54922         1.85064         3.81379
   O       -1.92702         2.98290         3.57467
   C       -2.26350         0.58453         3.59628
   C       -3.52193         0.47762         3.02616
   C       -4.31317         1.53303         2.60402
   C       -5.55612         1.33470         2.01942
   C       -6.45927         2.31455         1.56331
   C       -7.61307         1.80724         1.02659
   C       -7.66609         0.40375         1.03485
   S       -6.21228        -0.26038         1.74597
   C       -8.66162        -0.44559         0.56995
   C       -9.91091        -0.13440        -0.00158
   C      -10.63908        -1.23448        -0.35288
   C      -10.01157        -2.47154        -0.06790
   S       -8.44253        -2.17037         0.65479
   C      -10.50639        -3.70690        -0.41948
   C       -9.99702        -4.99281        -0.17865
   S      -10.45618        -6.22507        -1.33774
   C       -9.50916        -7.44420        -0.53036
   C       -8.91130        -6.90494         0.61441
   C       -9.19796        -5.55107         0.82064
   C       -8.80057        -4.85302         2.07944
   C       -8.56382        -5.86555         3.19496
   C       -7.51995        -6.86459         2.71898
   C       -8.06935        -7.69927         1.56270
   C       -9.41208        -8.75360        -1.06285
   S       -8.34658        -9.93607        -0.34083
   C       -8.73456       -11.12807        -1.54181
   C       -9.64905       -10.62540        -2.45126
   C      -10.04403        -9.30528        -2.17699
   C      -11.04444        -8.58629        -3.02349
   C      -11.76203        -9.52846        -3.98668
   C      -10.75262       -10.43574        -4.67589
   C      -10.13962       -11.38047        -3.64696
   C       -8.09293       -12.40295        -1.46457
   C       -6.94307       -12.64122        -0.64045
   C       -6.54995       -13.95924        -0.78099
   C       -5.48648       -14.68452        -0.20372
   C       -5.35847       -16.00317        -0.54961
   C       -4.41098       -17.00218        -0.15818
   C       -4.72353       -18.18630        -0.80004
   C       -5.87883       -17.95619        -1.61054
   C       -6.28005       -16.63471        -1.47218
   C       -7.34086       -15.91249        -2.04709
   C       -7.47006       -14.58825        -1.70408
   C       -8.41156       -13.59323        -2.10267
   C       -4.05054       -19.46162        -0.71626
   C       -2.97795       -19.72131         0.02581
   H        0.72017         3.36781         4.64476
   H        1.04482        -1.60421         5.14934
   H        3.31648         3.38944         5.70707
   H       -3.92816        -0.51749         2.88911
   H       -3.96059         2.54622         2.72782
   H       -6.23599         3.36350         1.64414
   H       -8.41155         2.40836         0.62925
   H      -10.23918         0.88011        -0.13847
   H      -11.61450        -1.19516        -0.80545
   H      -11.38421        -3.68002        -1.05632
   H       -9.57329        -4.13462         2.36041
   H       -7.87173        -4.29940         1.91959
   H       -9.49397        -6.38412         3.43832
   H       -8.21549        -5.34727         4.08846
   H       -6.63337        -6.31734         2.39426
   H       -7.22247        -7.53067         3.52957
   H       -8.67381        -8.52334         1.95638
   H       -7.23428        -8.14736         1.01773
   H      -10.53149        -7.80239        -3.59104
   H      -11.77939        -8.08941        -2.38437
   H      -12.31518        -8.93992        -4.71992
   H      -12.47918       -10.14148        -3.43635
   H      -11.23383       -11.01560        -5.46506
   H       -9.96878        -9.82755        -5.13225
   H       -9.30855       -11.93444        -4.08985
   H      -10.89447       -12.10728        -3.32892
   H       -6.47159       -11.89475        -0.02656
   H       -4.80619       -14.20382         0.48506
   H       -3.59794       -16.83541         0.52301
   H       -6.35146       -18.70129        -2.22636
   H       -8.02313       -16.39135        -2.73554
   H       -9.23856       -13.77652        -2.75990
   H       -4.48417       -20.24861        -1.32125
   H       -2.51546       -18.97148         0.64429
   H       -2.52704       -20.69822         0.04262
*
