# ORCA input file
# SCF done       -202.886200348186          0.000553810454
! CAM-B3LYP def2-SVP def2/J RIJCOSX Grid4 TightSCF
%maxcore 5000
%tddft
    Mode sTDDFT
    Ethresh 5.0
    maxcore 5000
end

%pal
  nprocs 6
  end
* xyz 0 1
   C       -3.32180        -1.54640        -2.40023
   C       -3.23807        -1.70088        -3.75850
   C       -2.89248        -2.91125        -4.39629
   N       -2.62378        -3.86808        -4.97052
   C       -3.45138        -0.67939        -4.70899
   N       -3.59173         0.09583        -5.54455
   C       -3.01873        -2.56837        -1.40886
   C       -3.08165        -1.98405        -0.12069
   C       -2.84186        -2.69676         1.02926
   C       -2.52212        -4.05203         0.90192
   C       -2.46412        -4.62918        -0.38997
   C       -2.70809        -3.90887        -1.55196
   S       -2.05814        -6.31704        -0.31781
   C       -1.97071        -6.22568         1.42139
   C       -2.23236        -4.99579         1.92470
  Br       -1.54446        -7.76236         2.40794
   C       -3.43728        -0.55542        -0.23576
   O       -3.59099         0.21514         0.68502
   C       -3.64241        -0.31536        -1.69088
   C       -4.23446         0.77392        -2.24683
   C       -4.50528         2.04959        -1.64066
   C       -5.64416         2.75505        -2.07047
   C       -5.93312         3.97385        -1.51396
   C       -5.07540         4.53927        -0.55056
   C       -3.92286         3.87274        -0.15627
   C       -3.64818         2.63402        -0.69752
   C       -5.61191         5.82177        -0.15649
   C       -6.80091         6.05035        -0.87401
   C       -7.10363         4.88766        -1.78935
   C       -7.14309         5.32655        -3.26509
   C       -5.85406         6.00207        -3.71725
   C       -8.43694         4.21270        -1.41415
   C       -8.47827         3.74758         0.03662
   C       -7.51026         7.20980        -0.69178
   C       -7.04729         8.18035         0.21591
   C       -5.86210         7.93141         0.92816
   C       -5.14646         6.76703         0.74968
   C       -7.81260         9.38912         0.35810
   C       -7.50262        10.44715         1.14294
   C       -8.26531        11.64809         1.23868
   C       -7.79987        12.70196         2.06615
   C       -8.49638        13.96169         2.19148
   N       -7.94944        14.95745         2.91738
   C       -6.82117        14.75029         3.53969
   C       -6.16311        13.47435         3.47343
   N       -6.65583        12.50735         2.74193
   C       -4.96444        13.25521         4.19509
   N       -3.99554        13.11013         4.78933
   C       -6.25068        15.80709         4.29365
   N       -5.77734        16.64341         4.91698
   C       -9.70327        14.20817         1.51950
   C      -10.15775        13.17447         0.68333
   C       -9.46758        11.91197         0.54525
   N      -10.11300        11.09852        -0.29600
   S      -11.42684        11.83446        -0.84639
   N      -11.26939        13.22013        -0.06039
   C      -10.43030        15.46061         1.55016
   C      -10.69630        16.25092         2.59541
   C      -10.38929        15.95730         4.02511
   C      -11.47883        17.52160         2.36701
   N      -12.87761        17.29267         2.64831
   C      -13.72021        18.21783         3.14037
   C      -15.06674        18.05247         3.21505
   C      -15.97426        19.01353         3.71739
   C      -17.35055        18.90207         3.73111
   C      -17.92101        20.08376         4.26050
   C      -16.78086        20.96289         4.60851
   C      -15.63511        20.31483         4.27973
   C      -16.83319        22.23763         5.17960
   N      -16.82080        23.28689         5.64933
   C      -19.25441        20.39491         4.40544
   C      -19.81984        21.61192         4.89078
   C      -21.18971        21.52725         4.84558
   C      -21.53562        20.21913         4.32555
   C      -20.39157        19.52931         4.05673
   C      -20.33923        18.23152         3.54539
   N      -20.33646        17.16143         3.12300
   C      -22.17240        22.50927         5.21838
   C      -21.89764        23.72778         5.68413
   H       -2.89805        -2.22198         1.99629
   H       -2.65827        -4.39464        -2.51205
   H       -2.22271        -4.76218         2.97363
   H       -4.59344         0.67940        -3.26568
   H       -6.29161         2.31370        -2.81463
   H       -3.24904         4.31456         0.56151
   H       -2.74320         2.12124        -0.41773
   H       -7.98035         6.01397        -3.40209
   H       -7.32817         4.44796        -3.88616
   H       -5.65646         6.89252        -3.12431
   H       -5.93338         6.29475        -4.76141
   H       -5.00805         5.32626        -3.61422
   H       -8.59197         3.35667        -2.07405
   H       -9.24849         4.92155        -1.59095
   H       -7.68926         3.02507         0.23351
   H       -9.43527         3.27738         0.25024
   H       -8.34965         4.58829         0.71483
   H       -8.42303         7.39438        -1.23996
   H       -5.50095         8.66555         1.63079
   H       -4.23736         6.59367         1.30529
   H       -8.71313         9.44696        -0.23834
   H       -6.61235        10.44453         1.75477
   H      -10.83178        15.73470         0.58108
   H      -10.17918        14.90355         4.18143
   H      -11.23541        16.24663         4.64751
   H       -9.52055        16.53022         4.34833
   H      -11.35152        17.85979         1.32920
   H      -11.11710        18.30856         3.03355
   H      -13.27953        16.45944         2.24209
   H      -13.24752        19.12189         3.49718
   H      -15.50093        17.13415         2.84144
   H      -17.91014        18.05802         3.37936
   H      -14.64048        20.69740         4.41683
   H      -19.24452        22.45101         5.22717
   H      -22.54008        19.86387         4.18024
   H      -23.20403        22.20274         5.09370
   H      -20.88624        24.07107         5.81753
   H      -22.67923        24.42135         5.94180
*
