# ORCA input file
# SCF done       -182.665987398146          0.000902616025
! CAM-B3LYP def2-SVP def2/J RIJCOSX Grid4 TightSCF
%maxcore 5000
%tddft
    Mode sTDDFT
    Ethresh 5.0
    maxcore 5000
end

%pal
  nprocs 6
  end
* xyz 0 1
   C        7.78148        -0.50165         0.98366
   C        6.64856         0.24393         1.18821
   C        6.53133         1.32344         2.08838
   N        6.29063         2.20686         2.77961
   C        5.42988         0.07458         0.50755
   N        4.40137        -0.03232         0.00207
   C        9.08076        -0.22327         1.58324
   C       10.08270        -0.83038         0.79985
   C       11.41976        -0.69017         1.10808
   C       11.75837         0.03375         2.24591
   C       10.76228         0.55634         3.07823
   C        9.41561         0.45389         2.74179
  Cl       11.19624         1.33954         4.53731
  Cl       13.41225         0.26364         2.63662
   C        9.45187        -1.64078        -0.26160
   O        9.98697        -2.27273        -1.14223
   C        7.99199        -1.55905         0.01456
   C        7.16506        -2.52994        -0.46391
   N        5.89864        -2.72570        -0.05590
   C        5.02408        -3.70974        -0.39413
   S        5.34409        -4.85914        -1.64407
   C        3.74579        -5.50365        -1.43272
   N        3.37474        -6.58650        -2.24004
   O        2.25500        -7.03916        -2.10145
   O        4.21380        -6.99175        -3.02567
   C        3.01613        -4.85851        -0.46929
   C        3.74202        -3.83331         0.16116
   C        3.22139        -2.96877         1.19703
   C        3.97770        -2.44937         2.18340
   C        3.61067        -1.39680         3.07362
   C        4.53605        -0.67039         3.81863
   C        5.88098        -1.06586         3.84313
   N        6.95364        -1.47180         3.78420
   C        3.95865         0.45261         4.46374
   C        2.58676         0.50766         4.23370
   S        2.00081        -0.74475         3.20499
   S        1.77866         1.85365         4.96723
   C        3.32277         2.39713         5.54999
   C        4.39328         1.57965         5.21767
   C        5.62928         2.13435         5.64744
   C        6.84485         1.44660         5.57931
   N        7.82628         0.84981         5.55938
   C        5.47914         3.37439         6.26018
   S        3.78191         3.82033         6.40732
   C        6.48658         4.26050         6.71371
   C        7.68786         4.45448         6.07795
   C        8.79607         5.20597         6.55162
   C        9.85387         5.24319         5.69372
   C        9.62767         4.55587         4.48174
   S        8.02263         3.86718         4.46184
   C       10.48902         4.31282         3.42769
   C       11.88353         4.52237         3.35022
   C       12.46901         3.96532         2.25316
   C       11.57013         3.30382         1.38184
   S        9.92345         3.49529         1.99282
   C       11.76081         2.51732         0.27572
   C       12.95539         2.11341        -0.36006
   C       12.93830         1.09925        -1.38637
   C       14.22606         0.86656        -1.81455
   C       14.74502        -0.01948        -2.78737
   C       16.09327         0.00376        -3.00852
   C       16.92670        -0.73158        -3.91109
   C       18.23445        -0.31692        -3.75051
   C       18.25822         0.69178        -2.73318
   C       16.96831         0.90014        -2.27135
   C       16.45730         1.77253        -1.29500
   C       15.10011         1.75474        -1.06820
   C       14.28243         2.50088        -0.17998
   C       19.36405        -0.82173        -4.49341
   C       20.62409        -0.41774        -4.35644
   H       12.18348        -1.13393         0.48914
   H        8.67090         0.85122         3.41460
   H        7.57873        -3.25650        -1.15314
   H        5.50045        -2.02810         0.56718
   H        2.00820        -5.13650        -0.21950
   H        2.17270        -2.71412         1.12818
   H        4.99355        -2.80005         2.32942
   H        6.26296         4.87103         7.57819
   H        8.78338         5.66623         7.52389
   H       10.78116         5.74894         5.89705
   H       12.42161         5.03115         4.13014
   H       13.52651         3.98877         2.07125
   H       10.85857         2.09570        -0.15249
   H       12.04838         0.60735        -1.73751
   H       14.08415        -0.68095        -3.32949
   H       16.57808        -1.47976        -4.59931
   H       19.13779         1.20312        -2.38723
   H       17.11585         2.43366        -0.74936
   H       14.65382         3.25186         0.48943
   H       19.12504        -1.59182        -5.21643
   H       20.91096         0.34503        -3.65302
   H       21.41747        -0.83931        -4.94882
*
