# ORCA input file
# SCF done       -194.315140532180          0.000948453034
! CAM-B3LYP def2-SVP def2/J RIJCOSX Grid4 TightSCF
%maxcore 5000
%tddft
    Mode sTDDFT
    Ethresh 5.0
    maxcore 5000
end

%pal
  nprocs 6
  end
* xyz 0 1
   C        1.84052        13.61276         2.32655
   S        0.51578        12.54507         2.57143
   C        0.97959        11.55366         1.22157
   C        2.12486        12.05662         0.62289
   C        2.61360        13.23968         1.26392
   O        3.72137        13.84084         0.79083
   C        4.15996        15.00277         1.45515
   C        2.78440        11.50761        -0.48782
   N        3.35470        11.09108        -1.39208
   C        0.17461        10.42468         0.90883
   C        0.34446         9.56538        -0.12230
   C       -0.54976         8.48178        -0.34386
   O       -1.59020         8.26780         0.51308
   C       -0.61067         7.52909        -1.33945
   C        0.03006         7.04065        -2.56619
   O        1.00183         7.41976        -3.16202
   N       -0.77042         5.96134        -2.94344
   C       -1.85262         5.69295        -2.10802
   O       -2.65191         4.80759        -2.26877
   C       -1.74241         6.71703        -1.06717
   C       -2.32167         7.20333         0.08557
   C       -3.48293         6.78900         0.79912
   C       -3.87626         7.38177         1.94396
   C       -5.03391         6.98467         2.70928
   C       -5.40625         5.67049         2.76579
   S       -6.73555         5.34319         3.79390
   C       -6.85626         7.03419         4.17129
   C       -5.89099         7.81946         3.52351
   C       -5.95009         9.22632         3.67647
   C       -5.01071        10.08384         2.86608
   C       -3.72217        10.41678         3.62423
   C       -6.88232         9.80409         4.53071
   C       -6.93467        11.30137         4.69882
   C       -8.08196        11.90839         3.88887
   C       -7.83572         9.00063         5.20581
   C       -8.96374         9.34919         6.04838
   C       -9.70661         8.24512         6.37614
   S       -9.10818         6.76317         5.77066
   C       -7.81589         7.61456         4.98256
   C       -9.36551        10.63560         6.55746
   C      -10.66286        10.99663         6.72646
   C      -11.06462        12.22826         7.28072
   C      -12.36779        12.64431         7.36026
   C      -12.85214        13.85357         7.91894
   C      -14.20253        14.00497         7.83726
   C      -14.86065        12.92810         7.19922
   S      -13.71393        11.70329         6.72787
   C      -16.21204        12.79994         6.92436
   C      -17.25469        13.69402         7.24262
   C      -18.47987        13.28609         6.79968
   C      -18.46351        12.05508         6.10696
   S      -16.83688        11.41711         6.05212
   C      -19.54474        11.42114         5.52195
   C      -19.43114        10.22027         4.83231
   C      -20.46767         9.56786         4.19192
   C      -20.38097         8.33109         3.46120
   C      -19.26890         7.53749         3.28981
   C      -19.26510         6.32761         2.56899
   N      -19.19214         5.33276         1.99848
   C      -17.98206         7.79843         3.79957
   N      -16.90199         7.92876         4.17173
   C      -21.70659         8.04393         2.91412
   C      -22.59247         9.07507         3.30936
   C      -21.85585        10.05962         4.13182
   O      -22.32311        11.06223         4.63840
   C      -23.91451         9.09834         2.94143
   C      -24.38839         8.05178         2.14187
   C      -23.49732         7.02546         1.75390
   C      -22.15842         7.00209         2.12771
   S      -24.28681         5.83270         0.76576
   C      -25.78300         6.71945         0.88651
   C      -25.69877         7.84930         1.62724
  Br      -27.31566         6.07099         0.01934
   H        1.96289        14.44888         2.98425
   H        5.05669        15.32325         0.92908
   H        4.40332        14.79354         2.50162
   H        3.40508        15.79423         1.40951
   H       -0.66181        10.26368         1.57717
   H        1.15097         9.66459        -0.83179
   H       -0.57684         5.41189        -3.76872
   H       -4.04197         5.98754         0.34115
   H       -3.26046         8.17585         2.33540
   H       -4.91693         4.84984         2.27858
   H       -4.77005         9.55778         1.94187
   H       -5.50581        11.00970         2.57347
   H       -3.23579         9.51346         3.98575
   H       -3.93004        11.04042         4.49058
   H       -3.03184        10.95280         2.97585
   H       -6.00046        11.75878         4.38398
   H       -7.05049        11.54313         5.75364
   H       -7.95006        11.69224         2.83097
   H       -8.10848        12.98774         4.02091
   H       -9.03892        11.49907         4.20198
   H      -10.57292         8.22999         7.00840
   H       -8.60028        11.33979         6.84625
   H      -11.44999        10.33396         6.39100
   H      -10.30206        12.89376         7.66445
   H      -12.18501        14.57087         8.36370
   H      -14.74000        14.85908         8.20786
   H      -17.08079        14.60675         7.78388
   H      -19.39418        13.83373         6.94352
   H      -20.51281        11.89458         5.59813
   H      -18.44433         9.77540         4.79060
   H      -24.56422         9.89934         3.25779
   H      -21.52064         6.19735         1.80287
   H      -26.52433         8.51443         1.80372
*
