# ORCA input file
# SCF done       -211.272189652462          0.000914104929
! CAM-B3LYP def2-SVP def2/J RIJCOSX Grid4 TightSCF
%maxcore 5000
%tddft
    Mode sTDDFT
    Ethresh 5.0
    maxcore 5000
end

%pal
  nprocs 6
  end
* xyz 0 1
   C        1.96323        -0.94339        -6.61665
   C        0.64099        -0.85227        -6.95282
   F       -0.03124        -1.96359        -7.30570
   C       -0.05399         0.36426        -6.94582
   C        0.61203         1.50443        -6.59021
   C        1.97554         1.46835        -6.23495
   C        2.66473         0.22115        -6.25038
   C        4.03614         0.16012        -5.90602
   C        4.69016         1.30914        -5.55621
   C        3.99157         2.55048        -5.52402
   C        2.67199         2.63971        -5.85867
   C        4.91231         3.61119        -5.07068
   O        4.68928         4.79747        -4.96555
   C        6.17188         2.91065        -4.71200
   C        6.08214         1.55261        -5.18016
   C        7.13016         0.70259        -5.44806
   C        8.48382         1.05813        -5.31281
   N        9.60198         1.31641        -5.25687
   C        6.97297        -0.58788        -5.99052
   N        6.90121        -1.64646        -6.42935
   C        7.14459         3.59945        -4.02808
   C        8.21217         3.11673        -3.26453
   S        9.60669         4.12283        -3.02464
   C       10.49760         2.87967        -2.20104
   C        9.66202         1.75100        -1.97552
   C        8.38046         1.88847        -2.58193
   C        7.39897         0.90527        -2.38659
   C        7.70528        -0.20557        -1.64584
   F        6.77213        -1.14548        -1.44452
   C        8.97241        -0.34905        -1.05570
   F        9.22961        -1.42798        -0.30172
   C        9.93296         0.62021        -1.19409
   C       11.84529         3.10713        -1.92411
   C       12.78270         2.14853        -1.59860
   C       14.11450         2.41719        -1.31967
   C       15.03706         1.42090        -1.03259
   C       16.40657         1.56077        -0.74643
   C       17.05384         0.37492        -0.51035
   C       16.21793        -0.74894        -0.60040
   S       14.58713        -0.26985        -0.98439
   C       16.53950        -2.09604        -0.44623
   C       17.78314        -2.68861        -0.18243
   C       17.73481        -4.05649        -0.13052
   C       16.45710        -4.60886        -0.36077
   S       15.30787        -3.31843        -0.61921
   C       16.18005        -5.96586        -0.27211
   C       15.01574        -6.70472        -0.44779
   S       15.01827        -8.29657         0.27570
   C       13.35301        -8.59511        -0.10501
   C       12.82097        -7.50848        -0.84298
   C       13.75913        -6.46235        -1.07275
   C       13.40552        -5.40706        -1.92204
   C       12.13634        -5.35080        -2.43814
   F       11.80163        -4.33961        -3.25070
   C       11.18702        -6.34530        -2.14370
   F        9.95372        -6.25296        -2.65535
   C       11.52414        -7.42397        -1.36926
   C       12.69605        -9.75766         0.29791
   C       13.29619       -10.78493         0.98325
   C       12.59891       -11.92099         1.40341
   C       13.07413       -12.96898         2.15343
   C       12.33388       -14.25480         2.14892
   O       11.21203       -14.44431         1.73174
   C       13.27341       -15.24797         2.70506
   C       13.12678       -16.59940         2.81982
   C       14.18807       -17.36510         3.35364
   C       15.38723       -16.70855         3.75504
   C       16.44491       -17.47750         4.27746
   C       16.29808       -18.83213         4.39012
   C       15.12674       -19.49604         4.00260
   C       14.09025       -18.76438         3.49253
   F       17.30856       -19.56858         4.88931
   C       15.50727       -15.30382         3.63126
   C       14.46333       -14.58306         3.11943
   C       14.29075       -13.14567         2.90259
   C       15.05441       -12.16765         3.49468
   C       14.72812       -10.79713         3.52688
   N       14.50172        -9.67596         3.63529
   C       16.21896       -12.42876         4.24361
   N       17.18831       -12.57255         4.84299
   H        2.46770        -1.89678        -6.63542
   H       -1.09695         0.37491        -7.22008
   H        0.09761         2.45358        -6.57670
   H        4.53070        -0.79809        -5.91772
   H        2.16296         3.59160        -5.83563
   H        7.03934         4.67997        -4.07271
   H        6.39930         1.02554        -2.76941
   H       10.85942         0.50201        -0.65966
   H       12.18894         4.12709        -2.04557
   H       12.49206         1.10863        -1.60776
   H       14.46489         3.44051        -1.31710
   H       16.88386         2.52447        -0.72548
   H       18.10066         0.29340        -0.27949
   H       18.67734        -2.10960        -0.03949
   H       18.58877        -4.68174         0.06095
   H       17.01901        -6.55085         0.09058
   H       14.11172        -4.64979        -2.21098
   H       10.79251        -8.19401        -1.18977
   H       11.63953        -9.82987         0.07889
   H       14.35584       -10.71181         1.18308
   H       11.58262       -12.04601         1.04348
   H       12.21265       -17.08045         2.50565
   H       17.36051       -16.99948         4.58906
   H       15.06822       -20.56708         4.11461
   H       13.17740       -19.25306         3.18666
   H       16.42974       -14.83648         3.93711
*
