# ORCA input file
# SCF done       -166.254450495642          0.000404736675
! CAM-B3LYP def2-SVP def2/J RIJCOSX Grid4 TightSCF
%maxcore 5000
%tddft
    Mode sTDDFT
    Ethresh 5.0
    maxcore 5000
end

%pal
  nprocs 6
  end
* xyz 0 1
   C        4.16709        -6.95395         4.17808
   C        3.00719        -7.50459         4.64779
   F        3.00686        -8.78031         5.08019
   C        1.80334        -6.79023         4.70019
   C        1.78551        -5.49310         4.26760
   C        2.95288        -4.87502         3.77603
   C        4.16629        -5.61997         3.72731
   C        5.35008        -5.02406         3.22969
   C        5.31920        -3.72508         2.80320
   C        4.10733        -2.97984         2.87380
   C        2.94929        -3.53107         3.33765
   C        4.36151        -1.60157         2.40840
   O        3.56237        -0.69855         2.28896
   C        5.82134        -1.53574         2.15683
   C        6.35690        -2.86616         2.22780
   C        7.53451        -3.32259         1.67981
   C        8.38910        -2.55158         0.86870
   N        9.10178        -1.99010         0.16375
   C        7.97544        -4.65676         1.76946
   N        8.40058        -5.72243         1.82966
   C        6.41928        -0.30017         2.02711
   C        7.76580         0.01904         2.15133
   C        8.26973         1.29537         1.97640
   C        9.62175         1.68413         2.08545
   C        9.84009         3.01249         1.85146
   C        8.66705         3.73199         1.55408
   S        7.27862         2.67184         1.55937
   C        8.54428         5.09221         1.29918
   C        9.55856         6.06560         1.24903
   C        9.09571         7.32597         0.99478
   C        7.69420         7.41765         0.84637
   S        6.98654         5.82347         1.01521
   C        7.03493         8.58697         0.50664
   C        5.68491         8.87318         0.32710
   S        5.31833        10.27620        -0.65020
   C        3.61040         9.96105        -0.64998
   C        3.31199         8.87454         0.19786
   C        4.47613         8.26958         0.76288
   C        4.32483         7.29676         1.75497
   C        3.05862         6.89537         2.13419
   C        2.91369         5.92603         3.15304
   N        2.79674         5.15175         3.98996
   C        1.90804         7.48100         1.56225
   C        2.03325         8.46752         0.62586
   C        2.74858        10.79497        -1.38566
   S        3.14533        12.47378        -1.57767
   C        1.69151        12.83005        -2.46509
   C        0.94905        11.64952        -2.66487
   C        1.55576        10.49702        -2.07147
   C        1.01564         9.22295        -2.30099
   C       -0.14061         9.10325        -3.04118
   C       -0.69788         7.82634        -3.27871
   N       -1.15880         6.79416        -3.46875
   C       -0.77124        10.24521        -3.59078
   C       -0.23090        11.48617        -3.41969
   C        1.37736        14.16051        -2.82036
   S       -0.26288        14.63876        -3.15593
   C        0.15558        16.27682        -3.35988
   C        1.50447        16.49375        -3.19156
   C        2.22169        15.28706        -2.88179
   C        3.61440        15.35296        -2.72542
   C        4.25414        16.56862        -2.83491
   C        5.65551        16.63320        -2.67314
   N        6.79292        16.69210        -2.53836
   C        3.53739        17.76486        -3.10933
   C        2.19184        17.72829        -3.29307
   H        5.07527        -7.53560         4.14906
   H        0.91920        -7.27724         5.08004
   H        0.87018        -4.92129         4.29853
   H        6.25384        -5.61209         3.20971
   H        2.04081        -2.94872         3.37351
   H        5.72303         0.52340         1.89403
   H        8.48027        -0.74409         2.42266
   H       10.39133         0.97237         2.32471
   H       10.80563         3.48328         1.89348
   H       10.59480         5.82089         1.39439
   H        9.72448         8.19537         0.91718
   H        7.70108         9.40499         0.25221
   H        5.18276         6.88931         2.26161
   H        0.93374         7.16373         1.90110
   H        1.15699         8.96775         0.24513
   H        1.51712         8.34233        -1.93049
   H       -1.67035        10.11317        -4.17293
   H       -0.69487        12.33724        -3.88940
   H       -0.60392        16.99496        -3.59519
   H        4.19757        14.46609        -2.53475
   H        4.08563        18.69213        -3.17862
   H        1.63102        18.62203        -3.51894
*
