# ORCA input file
# SCF done       -202.178186671832          0.000767235378
! CAM-B3LYP def2-SVP def2/J RIJCOSX Grid4 TightSCF
%maxcore 5000
%tddft
    Mode sTDDFT
    Ethresh 5.0
    maxcore 5000
end

%pal
  nprocs 6
  end
* xyz 0 1
   C      -13.50133       -13.63610        -8.32727
   C      -12.53096       -13.72371        -7.35062
   C      -11.72076       -14.85314        -7.14159
   N      -11.03481       -15.74224        -6.88873
   C      -12.23109       -12.73520        -6.39420
   N      -11.89939       -11.99124        -5.58277
   C      -13.73642       -14.65037        -9.35386
   C      -14.87778       -14.27920       -10.10112
   C      -15.32802       -15.00269       -11.17734
   C      -14.57723       -16.11503       -11.57485
   C      -13.43005       -16.46970       -10.82897
   C      -13.01094       -15.77167        -9.70210
   S      -12.61750       -17.83993       -11.52440
   C      -13.81977       -17.92271       -12.78717
   C      -14.78057       -16.97356       -12.69075
  Br      -13.69216       -19.25486       -14.09611
   C      -15.41183       -13.00730        -9.56551
   O      -16.42662       -12.45149        -9.94082
   C      -14.46387       -12.59042        -8.51633
   C      -14.49881       -11.36256        -7.87494
   C      -15.44938       -10.38681        -8.12351
   C      -15.46464        -9.14270        -7.51178
   C      -16.39906        -8.11480        -7.74012
   C      -16.18305        -6.98730        -6.99396
   C      -15.06844        -7.08303        -6.14454
   S      -14.29369        -8.63823        -6.31772
   C      -14.59399        -6.12316        -5.25266
   C      -15.12141        -4.84548        -5.00031
   C      -14.43536        -4.14726        -4.04180
   C      -13.33987        -4.84230        -3.49992
   S      -13.19794        -6.41740        -4.25390
   C      -12.48076        -4.40988        -2.50127
   C      -11.42551        -5.16202        -2.00931
   C      -10.60770        -4.76326        -0.97302
   C       -9.56773        -5.54567        -0.47568
   O       -9.24871        -6.75017        -1.02142
   C       -8.22460        -7.29051        -0.30994
   C       -7.87442        -6.40374         0.72572
   C       -8.71493        -5.29839         0.61848
   O       -8.74224        -4.19720         1.39352
   O       -6.90957        -6.53797         1.67372
   C       -7.67481        -8.53121        -0.64257
   C       -8.04939        -9.28575        -1.73319
   C       -7.47962       -10.51995        -2.02863
   C       -7.77454       -11.27416        -3.14942
   C       -7.18349       -12.50430        -3.39013
   C       -7.37298       -13.29682        -4.51196
   C       -6.80052       -14.56401        -4.72831
   C       -7.13676       -15.13010        -5.92708
   C       -7.98126       -14.32438        -6.71099
   S       -8.35642       -12.83872        -5.88566
   C       -8.49228       -14.63646        -7.96845
   C       -8.33795       -15.84627        -8.66582
   C       -9.01991       -15.88820        -9.85124
   C       -9.74369       -14.71585       -10.13297
   S       -9.48448       -13.52673        -8.87879
   C      -10.62119       -14.53768       -11.19359
   C      -11.43006       -13.42582       -11.32437
   C      -12.49060       -13.19063       -12.18421
   C      -13.01259       -13.87722       -13.32863
   C      -12.38402       -14.79140       -14.14731
   C      -13.02649       -15.48262       -15.19184
   N      -13.50264       -16.11856       -16.02254
   C      -11.01827       -15.12648       -14.12594
   N       -9.91199       -15.42447       -14.21975
   C      -14.35718       -13.34791       -13.58023
   C      -14.59600       -12.26777       -12.69613
   C      -13.43758       -12.12966       -11.79572
   O      -13.31991       -11.35786       -10.86111
   C      -15.76769       -11.55474       -12.68833
   C      -16.76581       -11.93526       -13.59204
   C      -16.52302       -13.01593       -14.46891
   C      -15.32836       -13.72849       -14.48473
   S      -17.89388       -13.32993       -15.49168
   C      -18.76173       -12.02070       -14.73403
   C      -18.06314       -11.38017       -13.76825
  Br      -20.50734       -11.62210       -15.29536
   H      -16.21608       -14.70694       -11.71401
   H      -12.14017       -16.09616        -9.15738
   H      -15.59520       -16.87686       -13.38507
   H      -13.71883       -11.13244        -7.15925
   H      -16.22812       -10.59344        -8.84320
   H      -17.20322        -8.23314        -8.44419
   H      -16.79747        -6.10627        -7.03940
   H      -15.98512        -4.46909        -5.51767
   H      -14.69384        -3.15599        -3.71356
   H      -12.66572        -3.42992        -2.08097
   H      -11.24107        -6.13133        -2.45362
   H      -10.76223        -3.81427        -0.48171
   H       -8.06025        -4.28448         2.07266
   H       -6.45294        -7.37827         1.55956
   H       -6.89213        -8.90578         0.00551
   H       -8.81253        -8.89262        -2.38931
   H       -6.74265       -10.91146        -1.33681
   H       -8.48726       -10.89431        -3.86938
   H       -6.50644       -12.89886        -2.64158
   H       -6.16263       -15.02799        -3.99677
   H       -6.79501       -16.09384        -6.25648
   H       -7.75880       -16.66314        -8.27670
   H       -9.04164       -16.73369       -10.51534
   H      -10.70285       -15.36646       -11.87831
   H      -11.31755       -12.65302       -10.56687
   H      -15.91793       -10.74173       -11.99683
   H      -15.19856       -14.54488       -15.17494
   H      -18.44530       -10.55505       -13.19585
*
