# ORCA input file
# SCF done       -211.203862601395          0.000918660057
! CAM-B3LYP def2-SVP def2/J RIJCOSX Grid4 TightSCF
%maxcore 5000
%tddft
    Mode sTDDFT
    Ethresh 5.0
    maxcore 5000
end

%pal
  nprocs 6
  end
* xyz 0 1
   C      -11.83820        -1.11207        -2.94101
   C      -11.77688        -2.05876        -1.95393
   C      -12.88938        -2.80589        -1.51157
   N      -13.75888        -3.44544        -1.12128
   C      -10.62451        -2.36456        -1.19648
   N       -9.74735        -2.63775        -0.50882
   C      -13.04693        -0.65958        -3.61513
   C      -12.73104         0.48018        -4.39395
   C      -13.67060         1.15201        -5.13820
   C      -14.98457         0.67400        -5.11585
   C      -15.28970        -0.47110        -4.34024
   C      -14.34041        -1.14850        -3.58575
   S      -16.96976        -0.89568        -4.46151
   C      -17.23707         0.45223        -5.53495
   C      -16.12646         1.18395        -5.79152
  Br      -18.95559         0.76593        -6.21579
   C      -11.29030         0.78640        -4.27563
   O      -10.71006         1.69757        -4.81732
   C      -10.73066        -0.29860        -3.41836
   C       -9.41409        -0.60797        -3.25462
   C       -8.28177         0.15427        -3.62746
   O       -8.32748         1.47428        -3.93721
   C       -6.95935        -0.25424        -3.70864
   C       -6.06312        -1.41313        -3.57362
   O       -6.28935        -2.55881        -3.29462
   N       -4.80906        -0.88557        -3.87285
   C       -4.79453         0.46824        -4.20251
   O       -3.81142         1.09680        -4.50084
   C       -6.19897         0.86826        -4.09723
   C       -7.09069         1.92741        -4.22479
   C       -6.93128         3.29331        -4.58018
   C       -5.74685         3.84112        -4.92916
   C       -5.60840         5.24699        -5.22859
   C       -6.29928         6.17215        -4.49382
   S       -5.95741         7.80227        -4.88791
   C       -4.86845         7.27253        -6.13499
   C       -4.77022         5.87614        -6.22413
   C       -4.03080         5.31434        -7.29111
   C       -4.02347         3.81892        -7.46159
   C       -2.81867         3.19632        -6.75255
   C       -3.32535         6.13564        -8.15984
   C       -2.69356         5.56980        -9.40207
   C       -3.73752         5.57000       -10.52340
   C       -3.32119         7.53961        -7.98295
   C       -2.65354         8.58792        -8.72006
   C       -3.06182         9.82185        -8.30983
   S       -4.19806         9.82362        -7.02040
   C       -4.15623         8.09049        -6.99530
   C       -1.55408         8.52454        -9.68189
   C       -1.48635         9.36281       -10.72187
   C       -0.31252         9.66490       -11.53499
   C       -0.09183        11.03291       -11.81399
   O       -1.04291        11.90486       -11.37531
   C       -0.63970        13.15550       -10.82287
   C       -1.43187        13.38990        -9.54334
   C        1.04410        11.44644       -12.50852
   O        1.24052        12.77008       -12.85040
   C        0.49944        13.19927       -13.98377
   C        0.97918        12.56352       -15.28316
   C        2.04146        10.51000       -12.84719
   O        3.13542        11.01008       -13.45900
   C        4.21084        10.14137       -13.76452
   C        5.33116        10.98856       -14.34613
   C        1.82464         9.17069       -12.57552
   C        0.64389         8.74288       -11.96584
   C        0.45631         7.30567       -11.87063
   S       -1.04525         6.52016       -12.27854
   C       -0.41352         4.93447       -12.09180
   C        0.91226         4.98403       -11.74717
   C        1.39283         6.33310       -11.64754
   O        2.70915         6.34763       -11.32261
   C        3.06198         5.03745       -11.21242
   N        4.41220         4.75084       -10.89828
   O        4.70292         3.57551       -10.77691
   O        5.17852         5.68332       -10.78450
   C        2.03694         4.16477       -11.45167
   H      -13.39962         2.01946        -5.71938
   H      -14.61958        -2.01875        -3.01573
   H      -16.11179         2.04753        -6.43102
   H       -9.14937        -1.56165        -2.81470
   H       -3.96900        -1.44648        -3.85694
   H       -7.84416         3.87120        -4.59119
   H       -4.86036         3.22319        -4.93521
   H       -6.95976         5.96726        -3.67380
   H       -4.00017         3.55113        -8.51710
   H       -4.94668         3.40801        -7.05088
   H       -2.87901         2.11175        -6.77907
   H       -2.77864         3.50502        -5.71142
   H       -1.89022         3.50692        -7.22677
   H       -2.31963         4.56145        -9.23691
   H       -1.85332         6.18569        -9.70624
   H       -3.34455         5.09708       -11.41963
   H       -4.01680         6.59146       -10.76977
   H       -4.63422         5.03709       -10.21517
   H       -2.70630        10.76332        -8.67913
   H       -0.71757         7.88399        -9.43178
   H       -2.33245        10.00777       -10.91624
   H       -0.85034        13.95288       -11.54509
   H        0.43167        13.15174       -10.60901
   H       -2.49776        13.33258        -9.74927
   H       -1.20097        14.37404        -9.14583
   H       -1.17415        12.64052        -8.79840
   H        0.65208        14.28105       -14.01174
   H       -0.57025        12.99106       -13.84049
   H        0.77664        11.49432       -15.28185
   H        2.04956        12.71498       -15.39231
   H        0.46296        13.01775       -16.12475
   H        3.88812         9.38577       -14.49472
   H        4.55221         9.62974       -12.85523
   H        4.99507        11.47965       -15.25535
   H        6.18738        10.36084       -14.57473
   H        5.62678        11.75026       -13.63030
   H        2.54959         8.42861       -12.86480
   H       -1.03906         4.08037       -12.24737
   H        2.09940         3.09685       -11.41961
*
