# ORCA input file
# SCF done       -185.817780187967          0.000640643637
! CAM-B3LYP def2-SVP def2/J RIJCOSX Grid4 TightSCF
%maxcore 5000
%tddft
    Mode sTDDFT
    Ethresh 5.0
    maxcore 5000
end

%pal
  nprocs 6
  end
* xyz 0 1
   C       -0.87789         4.05766         1.55511
   C       -0.36463         5.32385         1.11023
   C        0.98012         5.51748         0.72023
   N        2.05991         5.73370         0.39701
   C       -1.03440         6.47841         1.05861
   N       -1.54750         7.52550         0.79668
   C       -0.06208         2.88121         1.81429
   C       -0.91510         1.85506         2.29715
   C       -0.46082         0.61005         2.63530
   C        0.91195         0.35224         2.48939
   C        1.75351         1.37871         2.01174
   C        1.29094         2.64779         1.67169
   S        3.40632         0.85100         1.90658
   C        2.94601        -0.72359         2.49828
   C        1.62368        -0.84725         2.76180
  Br        4.25382        -2.05374         2.71163
   C       -2.30168         2.38003         2.34817
   O       -3.28427         1.77593         2.71643
   C       -2.20997         3.77565         1.84613
   C       -3.31492         4.62518         1.64451
   C       -4.60522         4.36905         2.02478
   C       -5.64811         5.24983         1.71311
   C       -6.96391         5.06791         2.06197
   O       -7.90663         5.97136         1.65583
   C       -9.12899         5.56579         2.10558
   C       -8.95538         4.36250         2.84348
   C       -7.61407         4.04695         2.81686
   O       -6.99872         2.99483         3.38602
   O       -9.91288         3.62286         3.47063
   C      -10.27975         6.26500         1.81661
   C      -10.29946         7.42507         1.03273
   C      -11.43349         8.11010         0.68960
   C      -11.41787         9.24686        -0.13780
   C      -12.52958         9.92218        -0.54485
   C      -12.51168        11.03769        -1.40982
   C      -13.59885        11.73697        -1.91013
   C      -13.25495        12.77222        -2.77093
   C      -11.88949        12.90505        -2.95329
   S      -11.02551        11.71027        -2.02841
   C      -11.19832        13.83374        -3.76949
   C      -11.72113        14.76592        -4.64777
   C      -10.74683        15.49496        -5.31802
   C       -9.44441        15.15592        -4.98102
   S       -9.46024        13.89124        -3.78136
   C       -8.29804        15.76204        -5.54974
   C       -6.97264        15.55917        -5.30282
   C       -6.43139        14.59678        -4.40910
   C       -5.12059        14.54309        -4.05892
   C       -4.16435        15.51141        -4.46176
   C       -4.69197        16.68899        -5.25582
   C       -5.94502        16.36235        -6.08824
   N       -6.54600        17.56154        -6.63047
   C       -6.48970        18.60365        -5.92818
   C       -5.76018        18.65369        -4.64480
   N       -4.92266        17.77506        -4.32057
   F       -6.00779        19.66813        -3.82193
   F       -7.05532        19.72278        -6.37087
   C       -2.84311        15.52479        -4.13088
   C       -2.07791        14.63591        -3.33246
   C       -0.71743        14.76964        -3.10862
   C       -0.17704        13.80382        -2.26376
   C       -1.11145        12.89757        -1.80848
   S       -2.68201        13.25592        -2.46001
   C       -0.92329        11.80568        -0.91332
   C        0.24682        11.35142        -0.35056
   C        0.05912        10.26387         0.51547
   C       -1.24844         9.88644         0.62706
   S       -2.27666        10.86226        -0.36483
   C       -1.81201         8.77239         1.44490
   H       -1.13392        -0.14980         3.00066
   H        1.97852         3.39377         1.31071
   H        1.16769        -1.74740         3.13200
   H       -3.11931         5.55014         1.11443
   H       -4.83498         3.46708         2.56971
   H       -5.42711         6.13878         1.13627
   H       -7.66275         2.44470         3.82212
   H      -10.77301         4.03643         3.34324
   H      -11.21548         5.88251         2.20254
   H       -9.34513         7.77862         0.66753
   H      -12.39267         7.75908         1.04930
   H      -10.45219         9.59280        -0.48628
   H      -13.50685         9.59345        -0.21471
   H      -14.61257        11.48554        -1.65242
   H      -13.97166        13.41422        -3.25038
   H      -12.77688        14.90085        -4.79715
   H      -10.96928        16.25902        -6.04203
   H       -8.54156        16.51283        -6.29252
   H       -7.10107        13.85768        -3.99992
   H       -4.79621        13.74051        -3.41733
   H       -3.90226        17.04306        -5.93570
   H       -5.64592        15.75534        -6.95349
   H       -2.25438        16.34955        -4.51545
   H       -0.13792        15.56012        -3.55175
   H        0.85984        13.76856        -1.98353
   H        1.20674        11.78726        -0.55632
   H        0.86093         9.77591         1.04118
   H       -1.38646         8.78931         2.45671
   H       -2.89970         8.87350         1.50641
*
