# ORCA input file
# SCF done       -194.178975073988          0.000374844271
! CAM-B3LYP def2-SVP def2/J RIJCOSX Grid4 TightSCF
%maxcore 5000
%tddft
    Mode sTDDFT
    Ethresh 5.0
    maxcore 5000
end

%pal
  nprocs 6
  end
* xyz 0 1
   C       -5.24209        -5.72220         1.14373
   C       -4.23451        -6.61337         0.86048
   C       -4.13340        -7.89331         1.43836
   N       -3.99532        -8.93808         1.89595
   C       -3.14451        -6.35119         0.00623
   N       -2.21503        -6.20132        -0.65178
   C       -6.31247        -5.94475         2.11508
   C       -7.06166        -4.75140         2.23842
   C       -8.10030        -4.61295         3.12450
   C       -8.41184        -5.70817         3.93689
   C       -7.68158        -6.90815         3.78338
   C       -6.63605        -7.04947         2.87845
   S       -8.23405        -8.13476         4.88170
   C       -9.39046        -7.01815         5.55201
   C       -9.38924        -5.79893         4.96572
  Br      -10.46027        -7.54827         6.99522
   C       -6.52154        -3.73837         1.31024
   O       -7.00204        -2.64594         1.08092
   C       -5.34900        -4.36423         0.66564
   C       -4.58747        -3.77651        -0.32639
   C       -4.43611        -2.40288        -0.56842
   S       -4.00958        -1.85698        -2.16998
   C       -4.07868        -0.22187        -1.66007
   C       -4.37781        -0.06199        -0.34050
   C       -4.45606         1.27050         0.32394
   C       -4.56029        -1.31110         0.31821
   C       -4.74553        -1.56862         1.70080
   C       -5.41208        -0.84605         2.64442
   C       -5.80628        -1.39963         3.88495
   C       -5.46851        -2.65026         4.33443
   C       -6.08135        -3.34436         5.37892
   S       -7.42132        -2.70714         6.27990
   C       -7.65399        -4.19261         7.16926
   C       -6.68465        -5.15332         6.77793
   C       -5.80505        -4.67737         5.77424
   C       -4.81202        -5.52966         5.27425
   C       -4.68618        -6.81619         5.74266
   C       -3.62811        -7.71605         5.19088
   C       -5.56384        -7.28872         6.75042
   C       -5.43758        -8.69100         7.25170
   C       -6.53946        -6.46012         7.25601
   C       -8.68916        -4.35576         8.07669
   C       -9.59413        -3.36891         8.42294
   C      -10.65686        -3.56922         9.28540
   C      -11.53479        -2.57085         9.68399
   C      -12.64874        -2.70368        10.52960
   C      -13.31268        -1.52877        10.76934
   C      -12.74116        -0.41759        10.12743
   S      -11.35353        -0.89955         9.19093
   C      -13.14234         0.91475        10.19883
   C      -14.23894         1.45221        10.89210
   C      -14.34089         2.81399        10.78663
   C      -13.32818         3.40606        10.00909
   S      -12.24102         2.18192         9.40359
   C      -13.15302         4.76076         9.76760
   C      -12.12378         5.27200         8.99419
   C      -11.81038         6.59668         8.74927
   C      -12.21917         7.81533         9.38395
   C      -12.66800         7.97615        10.67737
   C      -13.02785         9.21658        11.23599
   N      -13.35737        10.19560        11.73956
   C      -12.71486         6.95157        11.64138
   N      -12.72794         6.17596        12.48928
   C      -11.86373         8.91749         8.48688
   C      -11.08583         8.39934         7.42223
   C      -10.97852         6.93191         7.57618
   O      -10.36532         6.16003         6.86781
   C      -10.56207         9.19490         6.43441
   C      -10.82746        10.56821         6.49256
   C      -11.61700        11.07308         7.55032
   C      -12.14099        10.26780         8.55618
   S      -11.82943        12.79372         7.42482
   C      -10.86214        12.81018         5.97416
   C      -10.40530        11.59232         5.60016
  Br      -10.54732        14.43492         5.08940
   H       -8.64378        -3.68428         3.20064
   H       -6.11161        -7.98635         2.79901
   H      -10.03977        -4.99246         5.25189
   H       -4.06224        -4.42859        -1.01460
   H       -3.88766         0.55433        -2.37619
   H       -4.01962         2.03606        -0.31266
   H       -3.92694         1.25265         1.27474
   H       -5.49571         1.53515         0.51369
   H       -4.40913        -2.55737         1.98658
   H       -5.81110         0.12513         2.39843
   H       -6.51764        -0.82951         4.46875
   H       -4.69661        -3.20520         3.82017
   H       -4.13443        -5.17463         4.51183
   H       -3.01261        -7.19117         4.46491
   H       -4.07189        -8.57973         4.69697
   H       -2.98424        -8.08663         5.98700
   H       -4.45711        -8.85170         7.69809
   H       -5.54620        -9.39975         6.43163
   H       -6.19763        -8.90443         7.99859
   H       -7.20263        -6.82431         8.02660
   H       -8.79446        -5.32798         8.53895
   H       -9.46353        -2.38123         7.99688
   H      -10.82792        -4.56185         9.68181
   H      -12.93461        -3.65556        10.94116
   H      -14.18246        -1.44413        11.39504
   H      -14.92399         0.83776        11.44791
   H      -15.10562         3.40527        11.25734
   H      -13.88271         5.42389        10.20831
   H      -11.52054         4.56049         8.43686
   H       -9.96507         8.77387         5.64070
   H      -12.73973        10.70016         9.34047
   H       -9.79570        11.42011         4.73192
*
