# ORCA input file
# SCF done       -259.732329351517          0.000830066197
! CAM-B3LYP def2-SVP def2/J RIJCOSX Grid4 TightSCF
%maxcore 5000
%tddft
    Mode sTDDFT
    Ethresh 5.0
    maxcore 5000
end

%pal
  nprocs 6
  end
* xyz 0 1
   C        9.35638        -1.57351        -0.84817
   C       10.14979        -2.74761        -0.38080
   O       11.29057        -3.00539        -0.69396
   C        9.26595        -3.45814         0.56117
   C        8.00755        -2.85431         0.56553
   C        7.98763        -1.78071        -0.42207
   C        6.86675        -1.26225        -1.01344
   C        6.90724        -0.46868        -2.17938
   N        6.88026         0.13467        -3.15523
   C        5.54815        -1.50470        -0.58081
   N        4.45464        -1.62408        -0.25214
   C        6.98985        -3.32941         1.40301
   C        7.25141        -4.40512         2.21063
   C        8.50763        -5.05060         2.21744
   C        9.55343        -4.57040         1.37594
   C       10.80648        -5.21632         1.38821
   C       11.01364        -6.29812         2.19888
   C        9.98634        -6.77707         3.02779
   C        8.76165        -6.16770         3.03872
   C        9.99263        -0.52792        -1.43387
   C        9.53039         0.80261        -1.61782
   C        8.55183         1.47844        -0.93581
   C        8.39082         2.81845        -1.34810
   C        9.31725         3.17481        -2.36377
   S       10.33440         1.82914        -2.78995
   C        9.35291         4.43131        -2.94773
   C       10.26548         4.75641        -4.05100
   C        9.77763         5.32366        -5.22673
   C       10.63525         5.63074        -6.26312
   C       12.00120         5.38772        -6.15782
   C       12.48229         4.81727        -4.98680
   C       11.62895         4.50059        -3.94679
   C       12.91697         5.72682        -7.29221
   C        8.45818         5.38506        -2.43195
   C        7.55066         5.03463        -1.39844
   C        7.45782         3.75709        -0.86930
   C        6.39524         3.38382         0.07051
   C        5.62275         2.24918        -0.17347
   C        4.58399         1.90750         0.67014
   C        4.27154         2.69819         1.76950
   C        5.03251         3.83830         2.00230
   C        6.08519         4.17399         1.17471
   C        3.15139         2.33259         2.69232
   S        6.56246         6.39112        -0.93239
   C        7.36787         7.40610        -2.10667
   C        8.33108         6.74543        -2.80979
   C        6.95659         8.78192        -2.17784
   C        7.25371         9.64512        -3.18217
   C        6.75916        10.98764        -3.14734
   C        7.03533        11.89665        -4.15337
   C        6.55220        13.21385        -4.11519
   N        6.15777        14.29249        -4.07557
   C        7.82146        11.54726        -5.26223
   N        8.46751        11.24958        -6.16498
   C        5.96965        11.32929        -2.00446
   C        5.73042        10.40987        -1.03341
   O        6.20167         9.14124        -1.10959
   C        5.01064        10.67025         0.18473
   C        4.89739         9.82527         1.25235
   C        4.19860        10.39508         2.34362
   C        3.74241        11.70703         2.04942
   S        4.22799        12.20771         0.45028
   C        2.97262        12.46217         2.92078
   C        2.44791        13.78204         2.55293
   C        1.09124        14.06245         2.69764
   C        0.59030        15.29689         2.33298
   C        1.42380        16.28483         1.82228
   C        2.77758        16.00073         1.68143
   C        3.28554        14.76710         2.03633
   C        0.87897        17.61607         1.40848
   C        2.70518        11.88601         4.17525
   C        3.19202        10.58949         4.47968
   C        3.91997         9.81356         3.59281
   C        4.38143         8.47332         3.97912
   C        3.48640         7.55975         4.53105
   C        3.92572         6.33055         4.98254
   C        5.26719         5.97687         4.89692
   C        6.15250         6.87851         4.31556
   C        5.72048         8.10966         3.86264
   C        5.75901         4.67236         5.44602
   S        2.80225        10.13303         6.11320
   C        1.95723        11.65080         6.37213
   C        2.03027        12.46558         5.27432
   C        1.35967        11.98408         7.61944
   C        0.97844        11.15468         8.62040
   C        0.80067        11.68011        10.00513
   O        0.66269        12.84210        10.31568
   C        0.89799        10.49287        10.87430
   C        0.96621         9.34083        10.08822
   C        0.84497         9.71263         8.68426
   C        0.41706         8.90245         7.66784
   C       -0.00941         9.40541         6.41857
   N       -0.42953         9.78444         5.41993
   C        0.27751         7.50437         7.76738
   N        0.18392         6.36014         7.77531
   C        1.08819         8.07687        10.67938
   C        1.13701         7.99281        12.04616
   C        1.05869         9.13643        12.87164
   C        0.93657        10.42809        12.28097
   C        0.86032        11.56588        13.10972
   C        0.90157        11.42934        14.46996
   C        1.02090        10.15959        15.05722
   C        1.09809         9.03842        14.27726
   H        6.02292        -2.85302         1.42096
   H        6.47943        -4.78289         2.86545
   H       11.58782        -4.83964         0.74720
   H       11.97284        -6.79373         2.20654
   H       10.17175        -7.63350         3.65898
   H        7.96959        -6.53484         3.67529
   H       11.01496        -0.72302        -1.74260
   H        8.00013         1.05214        -0.11662
   H        8.71673         5.49870        -5.33296
   H       10.24222         6.06702        -7.17006
   H       13.53967         4.62032        -4.88385
   H       12.02556         4.07500        -3.03673
   H       12.74049         6.74525        -7.63388
   H       12.73419         5.05847        -8.13353
   H       13.95844         5.63021        -6.99638
   H        5.81371         1.65845        -1.05731
   H        4.00155         1.02141         0.46126
   H        4.79172         4.47708         2.83832
   H        6.67954         5.04832         1.39644
   H        2.45173         1.65802         2.20581
   H        2.61904         3.22217         3.02240
   H        3.54668         1.83052         3.57632
   H        8.95455         7.21085        -3.55092
   H        7.85199         9.32081        -4.01720
   H        5.57455        12.32825        -1.90815
   H        5.29988         8.82847         1.25335
   H        0.42616        13.29745         3.07148
   H       -0.46608        15.49554         2.44401
   H        3.44158        16.75665         1.28821
   H        4.34315        14.57256         1.93656
   H       -0.07239        17.81728         1.89478
   H        0.71927        17.63101         0.32993
   H        1.57815        18.41307         1.65221
   H        2.43696         7.80880         4.59310
   H        3.21562         5.64074         5.41592
   H        7.19758         6.61559         4.23130
   H        6.43002         8.81117         3.44803
   H        4.94486         3.95856         5.54580
   H        6.19220         4.83108         6.43435
   H        6.52998         4.24484         4.80789
   H        1.59858        13.45022         5.25165
   H        1.26754        13.04600         7.82567
   H        1.15530         7.18956        10.07066
   H        1.23712         7.02706        12.52032
   H        0.76926        12.53615        12.64759
   H        0.84248        12.30120        15.10414
   H        1.05169        10.07505        16.13343
   H        1.18913         8.06022        14.72698
*
