# ORCA input file
# SCF done       -161.225392377756          0.000496540566
! CAM-B3LYP def2-SVP def2/J RIJCOSX Grid4 TightSCF
%maxcore 5000
%tddft
    Mode sTDDFT
    Ethresh 5.0
    maxcore 5000
end

%pal
  nprocs 6
  end
* xyz 0 1
   C        5.07058        -0.85427         3.64237
   C        4.31908        -1.78004         4.54050
   O        3.96748        -1.53753         5.67352
   C        4.07399        -2.98663         3.73220
   C        4.72998        -2.86688         2.50592
   C        5.48837        -1.61964         2.48520
   C        6.56781        -1.36261         1.68296
   C        7.45169        -0.28020         1.87525
   N        8.23240         0.54951         2.01367
   C        6.98786        -2.19735         0.62620
   N        7.36587        -2.82414        -0.25779
   C        4.62688        -3.87632         1.53999
   C        3.87943        -4.98842         1.82756
   C        3.21976        -5.15002         3.06575
   C        3.30939        -4.12532         4.05270
   C        2.64704        -4.28943         5.28619
   C        1.92748        -5.42597         5.53335
   C        1.83720        -6.43933         4.56558
   C        2.46741        -6.30543         3.35884
   C        5.17060         0.45853         3.97054
   C        5.52408         1.55136         3.13806
   C        5.39939         1.67560         1.76775
   C        5.85996         2.90879         1.31304
   C        6.35171         3.74071         2.33132
   S        6.18402         3.00127         3.87612
   C        6.88457         4.94289         1.86797
   C        6.79478         5.03345         0.49499
   S        6.03378         3.64101        -0.24117
   C        7.29058         6.06372        -0.33916
   N        7.15327         6.08343        -1.63104
   C        7.78653         7.12809        -2.16041
   C        8.45650         7.97737        -1.26199
   S        8.24258         7.41027         0.34477
   N        9.12802         8.99587        -1.79515
   C        9.02072         8.99510        -3.09002
   S        8.01942         7.68225        -3.76906
   C        9.68675         9.90906        -3.94099
   C        9.61773         9.98566        -5.31602
   C       10.47999        10.96264        -5.81191
   C       11.21330        11.62918        -4.81754
   S       10.80595        11.05637        -3.24022
   C       12.13080        12.55000        -5.31749
   C       12.10542        12.60658        -6.69769
   S       10.89742        11.53152        -7.38143
   C       12.87926        13.41200        -7.57212
   C       14.10237        13.95826        -7.35596
   C       14.57057        15.07673        -8.22675
   O       14.06869        15.41585        -9.27522
   C       15.70812        15.67482        -7.50739
   C       15.99627        14.91153        -6.37477
   C       15.11487        13.74825        -6.34100
   C       15.36864        12.58126        -5.67119
   C       14.65463        11.38271        -5.87961
   N       14.14651        10.36718        -6.04540
   C       16.43299        12.40376        -4.76259
   N       17.26956        12.20597        -4.00231
   C       17.02352        15.29112        -5.50107
   C       17.74718        16.41931        -5.78685
   C       17.49469        17.20259        -6.93450
   C       16.44566        16.83184        -7.82565
   C       16.19480        17.61828        -8.96835
   C       16.95602        18.72636        -9.21994
   C       17.99172        19.09532        -8.34653
   C       18.25561        18.35207        -7.22883
   H        5.11539        -3.77834         0.58420
   H        3.78632        -5.77461         1.09235
   H        2.72368        -3.50456         6.02193
   H        1.42198        -5.55218         6.47900
   H        1.26352        -7.32826         4.78224
   H        2.39983        -7.08389         2.61274
   H        4.89842         0.70247         4.99286
   H        4.96792         0.92008         1.13690
   H        7.32427         5.70485         2.48479
   H        8.98484         9.35595        -5.91376
   H       12.76245        13.16849        -4.70640
   H       12.41917        13.66782        -8.52166
   H       17.23551        14.71594        -4.61452
   H       18.54032        16.72831        -5.12146
   H       15.39678        17.32512        -9.63197
   H       16.76488        19.32733       -10.09632
   H       18.58053        19.97378        -8.56527
   H       19.05253        18.63337        -6.55576
*
