# ORCA input file
# SCF done       -208.655245322658          0.000815510378
! CAM-B3LYP def2-SVP def2/J RIJCOSX Grid4 TightSCF
%maxcore 5000
%tddft
    Mode sTDDFT
    Ethresh 5.0
    maxcore 5000
end

%pal
  nprocs 6
  end
* xyz 0 1
   C        4.86061         0.97599        -3.76999
   C        4.16958        -0.20427        -4.36799
   O        4.36153        -1.36329        -4.07519
   C        3.19739         0.36446        -5.31746
   C        3.38377         1.74534        -5.40660
   C        4.52094         2.13038        -4.57820
   C        5.28975         3.24966        -4.74843
   C        6.55047         3.42191        -4.13737
   N        7.60354         3.57326        -3.70752
   C        4.96984         4.30754        -5.62364
   N        4.75209         5.20364        -6.30683
   C        2.56526         2.52492        -6.23380
   C        1.58227         1.90427        -6.95954
   C        1.37554         0.50810        -6.90332
   C        2.19791        -0.29460        -6.05982
   C        1.98559        -1.68699        -6.00410
   C        0.99961        -2.26226        -6.75752
   C        0.18825        -1.47704        -7.59204
   C        0.37044        -0.12306        -7.66379
   C        5.55155         0.83797        -2.61139
   C        5.94581         1.84128        -1.68835
   C        6.95434         1.74436        -0.75273
   C        7.09029         2.89193         0.02740
  Cl        8.29252         3.05661         1.23281
   C        6.15849         3.88795        -0.25556
   S        5.10659         3.35997        -1.53452
   C        6.03957         5.16629         0.33231
   C        5.09951         6.15421         0.04661
  Cl        3.84173         5.94911        -1.09919
   C        5.27545         7.33219         0.76178
   C        6.36481         7.28522         1.61450
   S        7.16192         5.74503         1.53515
   C        6.86115         8.33150         2.43771
   C        8.03466         8.16364         3.20361
   C        8.61628         9.22776         3.96538
   N        9.75344         9.00198         4.65235
   C       10.30098         7.83088         4.61983
   C        9.72094         6.77335         3.86801
   N        8.63238         6.95581         3.19411
   F       10.27953         5.56898         3.83870
   F       11.42019         7.64494         5.31000
   C        8.05281        10.52082         4.01736
   C        6.84483        10.68385         3.29875
   C        6.26174         9.61044         2.52124
   N        5.13560         9.99819         1.92128
   S        4.83676        11.52955         2.28843
   N        6.11224        11.79556         3.22229
   C        8.69543        11.57556         4.71971
   C        8.26576        12.88518         4.84715
   C        9.15990        13.68066         5.55302
  Cl        8.88003        15.34461         5.84591
   C       10.30215        13.00952         5.98646
   S       10.22481        11.33485         5.50496
   C       11.40714        13.54280         6.68657
   C       12.56376        12.87898         7.09705
  Cl       12.84025        11.21426         6.81370
   C       13.48178        13.68683         7.76103
   C       13.06454        14.99950         7.87753
   S       11.50671        15.21694         7.13471
   C       13.74202        16.12418         8.40566
   C       14.80376        16.17008         9.25225
   C       15.62462        17.41550         9.31862
   O       15.30729        18.49818         8.87914
   C       16.88339        17.01117         9.96769
   C       16.78200        15.68635        10.39512
   C       15.44112        15.18789        10.10198
   C       14.82615        14.13630        10.72825
   C       13.44743        13.86333        10.61054
   N       12.32357        13.63368        10.57873
   C       15.46906        13.26734        11.63385
   N       15.94612        12.52004        12.36266
   C       17.86406        15.05361        11.02009
   C       19.02049        15.76418        11.21169
   C       19.15049        17.11065        10.80617
   C       18.05884        17.76233        10.16134
   C       18.19456        19.10438         9.75181
   C       19.36442        19.77606         9.97708
   C       20.44166        19.14059        10.61541
   C       20.33900        17.83790        11.02013
   H        2.69775         3.59321        -6.29062
   H        0.93928         2.49019        -7.60039
   H        2.61485        -2.27983        -5.35933
   H        0.83817        -3.32899        -6.71528
   H       -0.58393        -1.95231        -8.17865
   H       -0.25257         0.48281        -8.30572
   H        5.77290        -0.18433        -2.31920
   H        7.60013         0.89032        -0.66429
   H        4.64694         8.19726         0.66531
   H        7.33987        13.23791         4.43369
   H       14.43576        13.32525         8.09812
   H       13.42019        17.08905         8.02518
   H       17.79604        14.02467        11.33416
   H       19.86661        15.28995        11.68762
   H       17.36032        19.58173         9.26255
   H       19.46775        20.80422         9.66405
   H       21.35561        19.69058        10.78417
   H       21.16681        17.34716        11.51122
*
