# ORCA input file
# SCF done       -155.969200234678          0.000455723353
! CAM-B3LYP def2-SVP def2/J RIJCOSX Grid4 TightSCF
%maxcore 5000
%tddft
    Mode sTDDFT
    Ethresh 5.0
    maxcore 5000
end

%pal
  nprocs 6
  end
* xyz 0 1
   C        2.13519        -0.21855         0.74304
   C        2.04657        -0.38338         2.22453
   O        2.43023        -1.34171         2.85663
   C        1.45851         0.87562         2.71444
   C        1.06883         1.66110         1.62848
   C        1.33923         0.93875         0.38950
   C        0.73873         1.17339        -0.81838
   C        0.84347         0.30492        -1.92506
   N        0.86372        -0.38898        -2.83873
   C       -0.12347         2.25886        -1.07829
   N       -0.81855         3.13014        -1.35186
   C        0.50004         2.92550         1.82896
   C        0.33297         3.37534         3.11265
   C        0.71064         2.60374         4.23356
   C        1.29161         1.31605         4.04187
   C        1.67294         0.55242         5.16378
   C        1.48464         1.04479         6.42581
   C        0.91110         2.31160         6.62061
   C        0.53214         3.07442         5.55021
   C        2.95318        -1.03248         0.02895
   C        3.49586        -0.82054        -1.26462
   C        3.70500         0.37523        -1.92461
   C        4.33354         0.18861        -3.15328
   C        4.60372        -1.15642        -3.45523
   S        4.10222        -2.19297        -2.17488
   C        5.21607        -1.34064        -4.69560
   C        5.41841        -0.13567        -5.32882
   S        4.85610         1.24100        -4.41560
   C        6.02807         0.10043        -6.60186
   N        6.14775         1.38470        -6.98983
   C        6.72731         1.58713        -8.14118
   C        7.20314         0.50241        -8.90959
   N        7.01623        -0.74618        -8.45853
   N        6.43512        -0.94391        -7.32688
   C        7.87590         0.67007       -10.16370
   C        8.31315        -0.33093       -10.99937
   C        8.93405         0.18748       -12.13806
   C        8.98014         1.58877       -12.16852
   S        8.22916         2.27456       -10.77704
   C        9.63062         2.11324       -13.28194
   C       10.08395         1.11778       -14.12567
   S        9.67335        -0.48452       -13.53991
   C       10.75369         1.25289       -15.36999
   C       11.49781         2.29791       -15.81056
   C       11.75946         2.45482       -17.27257
   O       11.58917         1.60605       -18.11850
   C       12.20084         3.85107       -17.43494
   C       12.34447         4.44341       -16.17909
   C       12.06696         3.45230       -15.14475
   C       12.50781         3.50922       -13.84986
   C       12.44416         2.42377       -12.95110
   N       12.45591         1.56279       -12.19241
   C       13.15598         4.62537       -13.28093
   N       13.67194         5.50808       -12.75958
   C       12.72678         5.78594       -16.06139
   C       12.96532         6.50416       -17.20384
   C       12.84533         5.93140       -18.48914
   C       12.45012         4.56796       -18.62158
   C       12.32760         4.00253       -19.90705
   C       12.59016         4.75720       -21.01713
   C       12.98165         6.09991       -20.89252
   C       13.10597         6.67530       -19.65769
   H        0.21109         3.54007         0.99187
   H       -0.09858         4.35064         3.28551
   H        2.11291        -0.41891         5.00204
   H        1.77780         0.46006         7.28480
   H        0.77203         2.68057         7.62597
   H        0.09053         4.04940         5.69742
   H        3.29170        -1.92302         0.54937
   H        3.45494         1.33640        -1.51420
   H        5.50527        -2.28074        -5.12580
   H        6.82234         2.61180        -8.47848
   H        8.17872        -1.37153       -10.77187
   H        9.73304         3.16365       -13.48516
   H       10.60365         0.45130       -16.08633
   H       12.82000         6.25079       -15.09334
   H       13.25586         7.54227       -17.13187
   H       12.02576         2.97049       -19.99083
   H       12.49760         4.32330       -22.00142
   H       13.18416         6.67692       -21.78259
   H       13.40734         7.70808       -19.55893
*
