# ORCA input file
# SCF done       -176.196394620612          0.000771058617
! CAM-B3LYP def2-SVP def2/J RIJCOSX Grid4 TightSCF
%maxcore 5000
%tddft
    Mode sTDDFT
    Ethresh 5.0
    maxcore 5000
end

%pal
  nprocs 6
  end
* xyz 0 1
   C       -2.02499        -7.06979        -6.41228
   C       -2.53578        -8.16703        -7.10175
   C       -3.59282        -7.95160        -8.13776
   C       -2.06741        -9.46076        -6.82952
   C       -2.61900       -10.63701        -7.57037
   C       -1.08417        -9.64636        -5.86251
   C       -0.58390        -8.55446        -5.18415
   C       -1.04878        -7.25580        -5.44965
   C       -0.35145        -6.31484        -4.57447
   C       -0.59281        -4.96256        -4.51266
   C       -1.53248        -4.29181        -5.32029
   N       -2.27903        -3.68351        -5.94690
   C        0.02740        -4.05484        -3.63094
   N        0.47021        -3.25272        -2.93714
   C        0.58501        -7.07192        -3.78124
   C        0.44751        -8.50467        -4.13211
   O        1.05154        -9.44981        -3.66177
   C        1.47643        -6.57128        -2.85621
   C        2.33097        -7.34484        -2.07466
   C        3.18103        -6.80878        -1.12616
   C        4.01216        -7.52963        -0.24080
   C        4.69999        -6.74449         0.64011
   C        4.45686        -5.36619         0.47659
   S        3.33201        -5.08980        -0.82883
   C        4.97447        -4.31675         1.22719
   C        5.77257        -4.39919         2.38536
   C        6.05767        -3.18346         2.93593
   C        5.52862        -2.08358         2.22057
   S        4.64079        -2.65447         0.82774
   C        5.64522        -0.76978         2.63665
   C        5.27850         0.41317         1.99461
   C        4.95141         0.71685         0.66674
   F        4.93934        -0.19018        -0.31437
   C        4.70760         2.05819         0.41917
   F        4.35390         2.49259        -0.79407
   C        4.81111         2.89218         1.53986
   S        5.24353         1.90082         2.91817
   C        4.61967         4.26024         1.73521
   C        4.50881         5.28989         0.81942
   C        4.25107         6.63395         1.17970
   C        4.26656         7.50873         0.13271
   C        4.55864         6.89853        -1.10348
   S        4.76751         5.18015        -0.90562
   C        4.71329         7.51357        -2.33954
   C        4.58150         8.88297        -2.64546
   C        4.84827         9.18055        -3.95121
   C        5.20859         8.06163        -4.73385
   S        5.16636         6.60885        -3.76199
   C        5.56280         8.07252        -6.06951
   C        5.95017         6.93165        -6.76624
   C        6.33981         6.81547        -8.08049
   C        7.11051         5.61106        -8.48690
   O        7.25527         4.59435        -7.84334
   C        7.69342         5.94862        -9.79773
   C        7.23424         7.21468       -10.19989
   C        7.68979         7.75508       -11.38867
   C        8.58666         7.03643       -12.17604
   C        9.02725         5.76629       -11.77620
   C        8.57466         5.22744       -10.57570
   C        9.98164         4.99174       -12.62832
   C        9.07693         7.63281       -13.45716
   C        6.28562         7.71403        -9.20234
   C        5.38946         8.73500        -9.41632
   C        4.29899         9.03907        -8.57860
   N        3.36926         9.31748        -7.96377
   C        5.38774         9.54786       -10.56684
   N        5.34750        10.25849       -11.46890
   H       -2.40106        -6.08595        -6.64213
   H       -3.85086        -6.89879        -8.21139
   H       -4.49239        -8.51433        -7.89001
   H       -3.24865        -8.29457        -9.11317
   H       -2.46370       -10.52213        -8.64268
   H       -3.69186       -10.72689        -7.40163
   H       -2.13866       -11.55612        -7.24597
   H       -0.70922       -10.63365        -5.63666
   H        1.51749        -5.49912        -2.70736
   H        2.31495        -8.41917        -2.19067
   H        4.06723        -8.60311        -0.27404
   H        5.37319        -7.12213         1.38852
   H        6.09765        -5.33870         2.79381
   H        6.63955        -3.04280         3.82958
   H        6.06526        -0.63428         3.62603
   H        4.58635         4.56437         2.77454
   H        4.05898         6.91271         2.20067
   H        4.08903         8.56471         0.22490
   H        4.29814         9.60974        -1.90576
   H        4.79564        10.16705        -4.37581
   H        5.56700         9.03509        -6.55864
   H        6.05149         6.01542        -6.19042
   H        7.37031         8.73211       -11.71496
   H        8.90386         4.25314       -10.24648
   H       10.90900         5.54673       -12.76761
   H        9.55534         4.81103       -13.61459
   H       10.21536         4.03446       -12.17048
   H        8.63974         8.61438       -13.61780
   H        8.81597         6.99411       -14.30033
   H       10.16204         7.73175       -13.44299
*
