# ORCA input file
# SCF done       -202.932731063101          0.000404363766
! CAM-B3LYP def2-SVP def2/J RIJCOSX Grid4 TightSCF
%maxcore 5000
%tddft
    Mode sTDDFT
    Ethresh 5.0
    maxcore 5000
end

%pal
  nprocs 6
  end
* xyz 0 1
   C        4.66469        -6.92632        10.76167
   C        3.66348        -6.79597        11.71944
   C        3.95822        -6.06940        12.99247
   C        2.38859        -7.34207        11.49806
   C        1.31469        -7.19869        12.52790
   C        2.12900        -8.02191        10.31295
   C        3.12597        -8.14340         9.36632
   C        4.40322        -7.59839         9.57858
   C        5.23798        -7.87994         8.41749
   C        6.52039        -7.43640         8.22793
   C        7.23937        -6.67576         9.17429
   N        7.87832        -6.06009         9.90290
   C        7.30037        -7.64852         7.07097
   N        8.00038        -7.75335         6.16680
   C        4.44079        -8.64894         7.47636
   C        3.07895        -8.82791         8.06312
   O        2.15571        -9.47167         7.62037
   C        4.89704        -9.25410         6.34603
   C        4.11935        -9.88962         5.34506
   C        2.80246        -9.64577         4.89451
   C        2.55810       -10.56278         3.84671
   C        3.78788       -11.27436         3.68780
   N        4.69271       -10.86015         4.57610
   O        4.04667       -12.17778         2.76987
   C        5.34849       -12.74160         2.80528
   C        1.25520       -10.27437         3.36501
   N        0.74062        -9.20897         4.02889
   C        1.63750        -8.81114         4.93221
   O        1.46951        -7.77034         5.70323
   C        0.23327        -7.08372         5.56632
   C        0.51865       -10.95599         2.35573
   C       -0.47160       -10.31310         1.57706
   C       -1.22865       -11.02273         0.58708
   N       -2.26179       -10.40649        -0.02361
   C       -2.48315        -9.15890         0.22116
   C       -1.63220        -8.41914         1.08890
   N       -0.67926        -8.99042         1.74414
   F       -1.78995        -7.10416         1.24094
   F       -3.52429        -8.57979        -0.36924
   C       -0.97645       -12.37895         0.27542
   C       -0.00262       -13.03037         1.06357
   C        0.72476       -12.32684         2.09792
   N        1.54747       -13.13795         2.76106
   S        1.46023       -14.60155         2.11822
   N        0.36647       -14.30816         0.98625
   C       -1.68721       -13.06918        -0.74601
   C       -2.29182       -12.56582        -1.92412
   C       -2.85414       -13.68431        -2.58207
   C       -2.54186       -14.80549        -1.74876
   N       -1.84439       -14.42214        -0.68348
   O       -2.87961       -16.04894        -1.99278
   C       -2.46348       -17.00681        -1.03057
   C       -3.44122       -13.20937        -3.77332
   N       -3.22571       -11.86561        -3.88216
   C       -2.54240       -11.46628        -2.80862
   O       -2.12930       -10.23352        -2.64378
   C       -2.58140        -9.28116        -3.59394
   C       -4.07908       -13.98589        -4.76983
   C       -4.68427       -13.54157        -5.90297
   C       -4.90462       -14.47097        -7.05260
   O       -4.89090       -15.67965        -7.01886
   C       -5.06954       -13.58811        -8.21978
   C       -5.08868       -12.24424        -7.80134
   C       -5.20835       -11.23820        -8.74396
   C       -5.31588       -11.56509       -10.09270
   C       -5.30980       -12.90838       -10.50340
   C       -5.18344       -13.91835        -9.55592
   C       -5.43597       -13.25606       -11.95210
   C       -5.44142       -10.47143       -11.10429
   C       -5.00914       -12.20024        -6.34541
   C       -5.38212       -11.15636        -5.54735
   C       -5.62408       -11.27579        -4.15872
   N       -5.98749       -11.32180        -3.07061
   C       -5.67912        -9.86797        -6.03283
   N       -5.89337        -8.79278        -6.37518
   H        5.63703        -6.50442        10.95900
   H        4.98260        -5.70782        13.00214
   H        3.81230        -6.72559        13.84988
   H        3.28756        -5.21922        13.11178
   H        1.10455        -6.14680        12.71901
   H        1.62622        -7.64726        13.47062
   H        0.39888        -7.68209        12.19920
   H        1.15781        -8.45380        10.12238
   H        5.96387        -9.30774         6.16463
   H        6.10476       -11.95613         2.75559
   H        5.41866       -13.40079         1.94265
   H        5.49195       -13.30335         3.72998
   H        0.34940        -6.13695         6.08988
   H       -0.56736        -7.67235         6.01777
   H        0.00116        -6.92760         4.51175
   H       -2.66395       -17.98289        -1.46689
   H       -3.02960       -16.87796        -0.10615
   H       -1.40267       -16.88277        -0.80794
   H       -2.39435        -9.63357        -4.60992
   H       -2.02894        -8.36513        -3.39559
   H       -3.65210        -9.10756        -3.46726
   H       -3.99048       -15.06097        -4.65726
   H       -5.21128       -10.20075        -8.44815
   H       -5.17510       -14.95676        -9.85196
   H       -4.61910       -12.81682       -12.52394
   H       -6.36843       -12.86742       -12.35999
   H       -5.41786       -14.33326       -12.09246
   H       -5.43031        -9.49762       -10.62288
   H       -6.37132       -10.57247       -11.66276
   H       -4.62169       -10.51660       -11.82063
*
