# ORCA input file
# SCF done       -200.286325454911          0.000904793482
! CAM-B3LYP def2-SVP def2/J RIJCOSX Grid4 TightSCF
%maxcore 5000
%tddft
    Mode sTDDFT
    Ethresh 5.0
    maxcore 5000
end

%pal
  nprocs 6
  end
* xyz 0 1
   C        4.62273        -7.67917         6.25536
   C        5.24711        -8.03771         7.44569
   C        4.34253        -8.35581         8.50248
   C        4.65308        -8.74714         9.78126
   C        5.96314        -8.90293        10.27413
   N        6.99696        -9.05024        10.74900
   C        3.63968        -9.03342        10.71921
   N        2.82149        -9.26839        11.48786
   S        2.66548        -8.19745         7.99492
   C        3.15484        -7.70478         6.35566
   O        2.37317        -7.44041         5.48211
   C        6.63739        -8.08972         7.61959
   N        7.78128        -8.12171         7.71555
   C        5.18379        -7.31475         5.02113
   C        6.53694        -7.21756         4.66739
   C        6.73457        -6.83784         3.36137
   C        5.51509        -6.63406         2.68511
   S        4.13786        -6.91297         3.67055
   C        5.61395        -6.24708         1.34005
   C        6.91372        -6.11290         0.82413
  Si        8.18038        -6.50521         2.18069
   C        9.20796        -4.99208         2.68844
   C        9.20368        -8.06225         1.81856
   C        6.89718        -5.73349        -0.50228
   C        5.61111        -5.56848        -1.02178
   S        4.38995        -5.89645         0.17777
   C        5.26518        -5.17919        -2.34133
   C        3.91770        -5.01488        -2.73765
   C        3.54411        -4.59913        -4.05586
   N        2.23889        -4.46429        -4.35706
   C        1.33983        -4.70679        -3.45866
   C        1.70946        -5.11486        -2.15133
   N        2.95397        -5.25725        -1.82773
   F        0.79140        -5.36566        -1.22552
   F        0.06353        -4.56757        -3.80128
   C        4.49351        -4.32378        -5.06897
   C        5.84650        -4.50628        -4.68737
   C        6.22402        -4.92053        -3.35294
   N        7.54762        -5.01700        -3.22871
   S        8.24533        -4.63366        -4.62205
   N        6.91494        -4.32320        -5.46286
   C        4.10034        -3.88615        -6.35802
   C        4.92676        -3.61475        -7.44996
   C        4.24245        -3.18008        -8.56819
   C        2.86249        -3.10884        -8.33015
   S        2.42247        -3.59478        -6.73987
   C        2.07492        -2.64618        -9.39888
   C        2.74185        -2.33404       -10.58888
  Si        4.60196        -2.61538       -10.34220
   C        5.58980        -0.99754       -10.42415
   C        5.28474        -4.01078       -11.43554
   C        1.86756        -1.89029       -11.56429
   C        0.54527        -1.80600       -11.13680
   S        0.38376        -2.36458        -9.48413
   C       -0.55926        -1.40624       -11.91704
   C       -1.79154        -0.99332       -11.50171
   C       -2.95686        -1.09460       -12.41853
   O       -2.92857        -1.29265       -13.61152
   C       -4.14365        -0.96704       -11.54544
   C       -5.46296        -1.11808       -11.86057
   C       -6.43237        -0.98479       -10.84062
   C       -6.01344        -0.70139        -9.50807
   C       -6.98544        -0.58169        -8.49473
   C       -8.31121        -0.73179        -8.79061
   C       -8.72475        -1.00868       -10.10902
   C       -7.80622        -1.13267       -11.11349
   F      -10.03137        -1.15139       -10.37063
   F       -9.23384        -0.61684        -7.82623
   C       -4.64018        -0.53901        -9.21325
   C       -3.72106        -0.66392       -10.21931
   C       -2.26799        -0.52026       -10.22160
   C       -1.54426         0.19920        -9.30548
   C       -0.19541         0.56076        -9.49870
   N        0.88663         0.91284        -9.65286
   C       -2.09317         0.73918        -8.12566
   N       -2.49307         1.19072        -7.14910
   H        7.32842        -7.42444         5.36319
   H        9.92784        -4.73883         1.91691
   H        9.75901        -5.19282         3.60151
   H        8.58288        -4.12115         2.86100
   H        8.57576        -8.89593         1.51913
   H        9.76207        -8.36484         2.69852
   H        9.91694        -7.87816         1.02173
   H        7.77085        -5.57112        -1.10520
   H        5.99179        -3.73983        -7.39144
   H        5.12064        -0.21628        -9.83385
   H        5.66261        -0.64284       -11.44722
   H        6.59895        -1.14071       -10.05132
   H        4.68360        -4.91193       -11.36223
   H        6.29943        -4.26243       -11.14511
   H        5.30635        -3.70793       -12.47734
   H        2.16227        -1.59223       -12.55465
   H       -0.44275        -1.51424       -12.99145
   H       -5.76463        -1.33807       -12.87330
   H       -6.68584        -0.36651        -7.48095
   H       -8.13922        -1.34545       -12.11727
   H       -4.34652        -0.33195        -8.19635
*
