# ORCA input file
# SCF done       -226.332867083852          0.000475172081
! CAM-B3LYP def2-SVP def2/J RIJCOSX Grid4 TightSCF
%maxcore 5000
%tddft
    Mode sTDDFT
    Ethresh 5.0
    maxcore 5000
end

%pal
  nprocs 6
  end
* xyz 0 1
   C       -3.98634         3.44892        -1.81530
   C       -4.47168         4.46118        -1.03592
   F       -4.33126         5.73633        -1.42328
   C       -5.12438         4.17978         0.18075
   F       -5.59111         5.19246         0.92494
   C       -5.28300         2.88916         0.60145
   C       -4.79465         1.82420        -0.17995
   C       -4.13362         2.10714        -1.40997
   C       -3.63349         1.05458        -2.21078
   C       -3.79260        -0.24108        -1.79526
   C       -4.46060        -0.51318        -0.57136
   C       -4.94961         0.48025         0.22634
   C       -4.52507        -1.97284        -0.35742
   O       -5.00844        -2.51433         0.61741
   C       -3.90686        -2.58210        -1.55336
   C       -3.39114        -1.51328        -2.39050
   C       -2.61011        -1.63525        -3.51219
   C       -2.12237        -2.83741        -4.06678
   N       -1.66305        -3.75801        -4.57854
   C       -2.14050        -0.53963        -4.26693
   N       -1.72872         0.30288        -4.92953
   C       -3.87819        -3.90563        -1.92565
   C       -4.30198        -5.07075        -1.27301
   C       -4.80609        -5.31267         0.00765
   C       -5.09010        -6.64267         0.21920
   C       -4.80788        -7.45538        -0.89590
   S       -4.17860        -6.56801        -2.20972
   C       -5.14606        -8.78641        -0.59300
   C       -5.64641        -8.83978         0.71758
   C       -5.64245        -7.47087         1.35494
   C       -7.05649        -7.02388         1.73522
   C       -4.71677        -7.42712         2.57444
   C       -6.02116       -10.11261         1.09432
   C       -5.81476       -11.05111         0.08246
   S       -5.13293       -10.32122        -1.36024
   C       -6.09316       -12.44358         0.09654
   C       -6.67465       -13.14115         1.18434
   C       -6.94784       -14.55025         1.11638
   N       -7.50699       -15.16755         2.17508
   C       -7.79445       -14.49593         3.24224
   C       -7.52387       -13.10723         3.30831
   N       -6.98821       -12.47556         2.31530
   F       -7.81068       -12.39970         4.40080
   F       -8.34301       -15.14604         4.26324
   C       -6.65959       -15.34901        -0.01636
   C       -6.06643       -14.65833        -1.10061
   C       -5.79961       -13.24289        -1.03389
   N       -5.24866       -12.79130        -2.15933
   S       -5.07914       -14.00454        -3.19507
   N       -5.69376       -15.16791        -2.27580
   C       -6.95693       -16.73465        -0.04929
   C       -6.69068       -17.61749        -1.09836
   C       -7.11124       -18.90119        -0.82352
   C       -7.71147       -19.01337         0.44106
   S       -7.74351       -17.52603         1.29842
   C       -8.11631       -20.34709         0.63028
   C       -7.77149       -21.10121        -0.50547
   C       -7.09702       -20.23132        -1.53879
   C       -5.66611       -20.69308        -1.82740
   C       -7.92445       -20.18017        -2.82678
   C       -8.17397       -22.41511        -0.41890
   C       -8.83472       -22.69551         0.78083
   S       -8.90943       -21.27850         1.82052
   C       -9.36544       -23.90188         1.26110
   C       -9.64208       -25.07024         0.60163
   C       -9.75771       -26.31813         1.40064
   O       -9.83452       -26.40347         2.60519
   C       -9.70301       -27.41880         0.41634
   C       -9.65792       -28.76468         0.63505
   C       -9.57195       -29.63774        -0.47314
   C       -9.52962       -29.09380        -1.78939
   C       -9.43352       -29.96915        -2.88943
   C       -9.38557       -31.32075        -2.69226
   C       -9.43037       -31.85762        -1.39037
   C       -9.52179       -31.03473        -0.30284
   F       -9.38078       -33.18690        -1.22660
   F       -9.29416       -32.15093        -3.74008
   C       -9.58837       -27.69416        -1.98448
   C       -9.68044       -26.86891        -0.89657
   C       -9.78842       -25.41345        -0.79028
   C      -10.20452       -24.58681        -1.80567
   C      -10.56942       -23.23921        -1.62475
   N      -10.90297       -22.14457        -1.52827
   C      -10.38904       -25.00922        -3.13683
   N      -10.52464       -25.28849        -4.24234
   H       -3.48804         3.68178        -2.74340
   H       -5.78524         2.69017         1.53521
   H       -3.14183         1.30413        -3.13670
   H       -5.45012         0.24324         1.15290
   H       -3.47733        -4.10198        -2.91330
   H       -4.94985        -4.52007         0.71848
   H       -7.71247        -7.06243         0.86857
   H       -7.03415        -6.00420         2.11054
   H       -7.45772        -7.67631         2.50627
   H       -3.71296        -7.74403         2.30063
   H       -5.09271        -8.08939         3.34984
   H       -4.66866        -6.41477         2.96680
   H       -6.43095       -10.38813         2.04643
   H       -6.21064       -17.28962        -2.00118
   H       -5.08517       -20.72660        -0.90843
   H       -5.18703       -20.00421        -2.51813
   H       -5.67560       -21.68534        -2.27136
   H       -8.95294       -19.90749        -2.60383
   H       -7.92516       -21.15414        -3.30956
   H       -7.50414       -19.44744        -3.51065
   H       -7.97094       -23.16819        -1.15877
   H       -9.52095       -23.95400         2.33510
   H       -9.68642       -29.15900         1.63934
   H       -9.40223       -29.57521        -3.89328
   H       -9.55479       -31.46100         0.68756
   H       -9.54953       -27.31070        -2.99163
*
