# ORCA input file
# SCF done       -168.274176193626          0.000379462416
! CAM-B3LYP def2-SVP def2/J RIJCOSX Grid4 TightSCF
%maxcore 5000
%tddft
    Mode sTDDFT
    Ethresh 5.0
    maxcore 5000
end

%pal
  nprocs 6
  end
* xyz 0 1
   C        1.35176         2.35819        -2.63470
   C        1.93139         3.55845        -2.94715
   C        2.57118         3.81955        -4.17580
   N        3.09051         4.07732        -5.16601
   C        2.03200         4.62374        -2.02800
   N        2.16818         5.48598        -1.28275
   C        1.47004         1.12893        -3.40841
   C        1.24465         0.02306        -2.53560
   C        1.33720        -1.26602        -2.97616
   C        1.64959        -1.51010        -4.33240
   C        1.85598        -0.40832        -5.21302
   C        1.76453         0.91644        -4.72790
   C        2.15626        -0.66740        -6.56573
   C        2.25251        -1.95169        -7.02791
   C        2.05227        -3.03558        -6.15991
   C        1.75786        -2.81955        -4.84105
   C        0.90612         0.52064        -1.19109
   O        0.70875        -0.11326        -0.18127
   C        0.78259         2.00176        -1.34927
   C        0.11197         2.72133        -0.41686
   C       -0.47776         4.00927        -0.52966
   C       -0.82619         4.82561         0.52667
   C       -1.43509         6.00417         0.09689
   C       -1.59811         6.08392        -1.29302
   S       -0.96902         4.68529        -2.07766
   C       -2.22154         7.25400        -1.72767
   C       -2.53372         8.07380        -0.66530
   S       -2.06295         7.40422         0.88163
   C       -3.17134         9.35860        -0.67269
   C       -3.55950        10.03695        -1.78483
   C       -4.18563        11.31732        -1.66783
   C       -4.59736        12.03792        -2.77564
   C       -5.21095        13.29432        -2.65018
   N       -5.71391        14.32053        -2.53249
   C       -4.42603        11.54587        -4.07923
   N       -4.28383        11.12937        -5.14047
   C       -4.36315        11.80651        -0.33566
   C       -3.95048        11.06719         0.72770
   O       -3.35856         9.85491         0.57694
   C       -4.08596        11.44722         2.10455
   C       -4.63043        12.59590         2.63588
   C       -4.58292        12.57876         4.03087
   C       -4.00229        11.41661         4.56814
   S       -3.50526        10.33103         3.32137
   C       -3.95424        11.38864         5.95790
   C       -4.50323        12.53091         6.51294
   S       -5.07503        13.65711         5.27500
   C       -4.67246        12.96167         7.84849
   C       -4.42768        12.34506         9.04176
   C       -4.67530        12.97653        10.33345
   C       -4.92379        14.30267        10.57146
   C       -5.14205        14.84427        11.85707
   N       -5.33321        15.35174        12.86869
   C       -4.96267        15.33384         9.60811
   N       -4.99540        16.23857         8.90116
   C       -4.54287        11.95474        11.36410
   C       -4.12038        10.74465        10.74654
   C       -3.99380        10.94603         9.29489
   O       -3.61654        10.11351         8.49605
   C       -3.89197         9.60602        11.46482
   C       -4.08785         9.62402        12.86331
   C       -4.52302        10.82810        13.48907
   C       -4.74623        11.99214        12.71877
   C       -4.72205        10.83407        14.88480
   C       -4.49987         9.70703        15.62825
   C       -4.06933         8.52278        15.01129
   C       -3.86781         8.48200        13.65828
   H        1.17336        -2.09076        -2.29861
   H        1.91698         1.73453        -5.41479
   H        2.31321         0.17019        -7.22925
   H        2.48426        -2.13966        -8.06546
   H        2.13203        -4.04240        -6.54150
   H        1.60254        -3.65014        -4.16820
   H       -0.06599         2.21062         0.52517
   H       -0.61335         4.58393         1.55154
   H       -2.42800         7.48636        -2.75517
   H       -3.39574         9.61798        -2.76314
   H       -4.82943        12.76529        -0.18463
   H       -5.03843        13.40002         2.05332
   H       -3.55026        10.58660         6.54750
   H       -5.09205        13.95943         7.90824
   H       -3.56707         8.70265        10.97019
   H       -5.07857        12.88482        13.22376
   H       -5.05195        11.74854        15.35544
   H       -4.65438         9.72189        16.69668
   H       -3.89841         7.64306        15.61350
   H       -3.53665         7.57308        13.17763
*
