# ORCA input file
# SCF done       -129.980452751937          0.000918132912
! CAM-B3LYP def2-SVP def2/J RIJCOSX Grid4 TightSCF
%maxcore 5000
%tddft
    Mode sTDDFT
    Ethresh 5.0
    maxcore 5000
end

%pal
  nprocs 6
  end
* xyz 0 1
   C        0.61749         1.22216        -0.78893
   C        0.80707         0.26526        -1.76834
   C        0.13016        -0.93674        -1.69706
   F        0.35473        -1.83034        -2.68163
   C       -0.76317        -1.24975        -0.66308
   C       -0.93877        -0.26790         0.32019
   C       -0.25916         0.92876         0.24217
   F       -0.45775         1.84419         1.20977
   C       -1.47463        -2.50572        -0.59200
   C       -2.43355        -2.86006         0.33506
   C       -2.92233        -4.14954         0.12523
   C       -2.33626        -4.79844        -0.96940
   S       -1.17279        -3.79079        -1.74604
   C       -2.82096        -6.08339        -1.18759
   C       -3.78741        -6.43390        -0.25856
   S       -4.09526        -5.15586         0.90161
   C       -4.50017        -7.66485        -0.20368
   C       -5.47965        -7.91839         0.78184
   C       -6.24322        -9.13623         0.84682
   N       -7.15231        -9.27840         1.83619
   C       -7.32137        -8.32960         2.69587
   C       -6.57454        -7.12557         2.62772
   N       -5.69489        -6.95252         1.69826
   F       -6.75444        -6.14903         3.51229
   F       -8.22566        -8.52250         3.65536
   C       -6.06032       -10.17772        -0.09161
   C       -5.06006        -9.93670        -1.06035
   C       -4.29402        -8.71551        -1.12650
   N       -3.42125        -8.74375        -2.13642
   S       -3.54521       -10.14099        -2.91223
   N       -4.70836       -10.79080        -2.02180
   C       -6.80239       -11.39552        -0.11015
   C       -7.84443       -11.78271         0.71461
   C       -8.32543       -13.04489         0.38049
   C       -7.66371       -13.64439        -0.69693
   S       -6.42150       -12.61799        -1.31590
   C       -8.14989       -14.91292        -1.02685
   C       -9.18913       -15.29742        -0.21176
   S       -9.57478       -14.06867         0.98733
   C       -9.95743       -16.52180        -0.23012
   C      -11.11798       -16.63594         0.54294
   C      -11.85619       -17.79997         0.53198
   F      -12.96839       -17.86714         1.28680
   C      -11.49431       -18.89871        -0.22907
   C      -10.34789       -18.80731        -0.99645
   C       -9.60318       -17.64377        -0.99201
   F       -8.49068       -17.62668        -1.75399
   H        1.13067         2.16898        -0.81555
   H        1.47797         0.43730        -2.59471
   H       -1.60131        -0.43311         1.15258
   H       -2.77836        -2.22140         1.12591
   H       -2.50371        -6.74351        -1.97236
   H       -8.22013       -11.16814         1.50882
   H       -7.75722       -15.50576        -1.83017
   H      -11.44554       -15.80799         1.15189
   H      -12.09437       -19.79333        -0.21462
   H      -10.01653       -19.63427        -1.60400
*
