# ORCA input file
# SCF done       -122.615298151774          0.000855220941
! CAM-B3LYP def2-SVP def2/J RIJCOSX Grid4 TightSCF
%maxcore 5000
%tddft
    Mode sTDDFT
    Ethresh 5.0
    maxcore 5000
end

%pal
  nprocs 6
  end
* xyz 0 1
   C        2.12923        -2.63228        -0.44911
   C        1.97672        -3.73909        -1.17443
   C        3.38022        -2.06392        -0.16469
   C        4.45828        -1.57179         0.08928
   C        5.69180        -0.99610         0.38659
   C        6.86941        -1.49941        -0.03591
   C        8.13246        -0.88987         0.28117
   C        9.34628        -1.42871        -0.18042
   N       10.50802        -0.88462         0.09155
   C       10.51508         0.22882         0.84447
   C        9.30232         0.76923         1.31583
   N        8.14573         0.22204         1.03778
   C       11.78945         0.80385         1.11625
   C       12.12653         1.94693         1.84629
   C       13.53713         2.19689         1.86837
   N       14.03823         3.25977         2.52290
   C       13.17382         4.03115         3.12505
   C       11.77326         3.79127         3.11333
   C       10.83906         4.71187         3.82440
   N       11.26226         2.76311         2.48164
   C       14.27854         1.23725         1.15276
   S       13.20808         0.05249         0.47400
   C       15.66486         1.14650         0.93913
   C       16.56889         2.04810         1.42463
   C       17.95229         1.96317         1.19655
   C       18.69684         1.01059         0.47366
   C       20.10186         1.28170         0.46087
   N       20.95606         0.46466        -0.18697
   C       20.42780        -0.56494        -0.78992
   C       19.03496        -0.84210        -0.78591
   C       18.49058        -2.03233        -1.50188
   N       18.18842        -0.06034        -0.15889
   C       20.45207         2.44152         1.17133
   S       19.02421         3.16548         1.84099
   C       21.71637         3.03218         1.37847
   C       22.87539         2.53481         0.87489
   C       24.15113         3.12494         1.07546
   S       25.56155         2.41165         0.33829
   C       26.63948         3.59617         1.00930
   C       25.90229         4.50176         1.77079
   C       24.51805         4.23679         1.79290
   N       26.37689         5.61889         2.51499
   O       27.53369         5.64500         2.88456
   O       25.56542         6.48960         2.76499
   C       28.01079         3.46965         0.59352
   C       29.06166         4.22559         0.91202
   H        1.27226        -2.11379        -0.03515
   H        2.82311        -4.26313        -1.58616
   H        1.00313        -4.15218        -1.37412
   H        5.69043        -0.09500         0.98654
   H        6.89936        -2.39587        -0.64058
   H        9.36797        -2.32474        -0.78761
   H        9.29810         1.66107         1.92511
   H       13.57868         4.88622         3.64996
   H       10.89539         5.70925         3.39067
   H       11.11238         4.78705         4.87554
   H        9.82185         4.34117         3.73986
   H       16.02223         0.31418         0.34996
   H       16.21214         2.88103         2.01395
   H       21.11536        -1.22028        -1.30837
   H       19.00270        -2.93641        -1.17770
   H       18.64665        -1.92422        -2.57468
   H       17.42657        -2.12530        -1.30475
   H       21.72437         3.93498         1.97360
   H       22.83602         1.63508         0.27867
   H       23.83479         4.85827         2.34188
   H       28.15688         2.63355        -0.08140
   H       29.00603         5.05154         1.59680
   H       30.02820         4.00478         0.49263
*
