# ORCA input file
# SCF done       -148.314888383348          0.000539479393
! CAM-B3LYP def2-SVP def2/J RIJCOSX Grid4 TightSCF
%maxcore 5000
%tddft
    Mode sTDDFT
    Ethresh 5.0
    maxcore 5000
end

%pal
  nprocs 6
  end
* xyz 0 1
   C        0.97744        -1.14679         1.44209
   C       -0.31618        -0.63864         1.47708
   C       -0.81747         0.15264         0.39019
   N       -2.06692         0.67535         0.45287
   C       -2.78656         0.40651         1.50034
   C       -2.30169        -0.40278         2.55977
   N       -1.10282        -0.90057         2.55337
   C       -0.01273         0.42222        -0.73015
   C        1.29332        -0.09867        -0.75350
   C        1.78570        -0.88451         0.34180
   N        3.04912        -1.38326         0.31368
   C        3.77674        -1.12743        -0.73054
   C        3.28289        -0.37186        -1.82421
   N        2.08114         0.12225        -1.83485
   C       -0.52816         1.19659        -1.85613
   C        0.23323         2.18069        -2.47448
   C       -0.27891         2.86863        -3.57677
   C       -1.57289         2.51943        -3.98815
   N       -2.29925         1.58461        -3.41164
   C       -1.79897         0.93353        -2.38225
   C        0.44418         3.89012        -4.29698
   C        1.56248         4.50944        -3.86776
   C        2.28504         5.50378        -4.58677
   S        3.19066         6.67900        -3.70040
   C        3.63999         7.56971        -5.12214
   C        3.16446         6.91723        -6.26755
   C        2.39621         5.74730        -5.96242
   C        1.92328         4.94062        -7.01220
   C        2.14351         5.28243        -8.32465
   C        1.64882         4.42264        -9.39755
   C        0.54174         3.69436        -9.33161
   C        2.89727         6.45574        -8.63132
   C        3.15316         6.83289       -10.05891
   C        3.39915         7.23025        -7.62229
   C        4.36006         8.77784        -4.90952
   C        4.55979         9.78740        -5.78155
   C        5.29353        11.00033        -5.50295
   C        5.76067        11.37306        -4.24218
   C        6.46112        12.56793        -4.06752
   C        6.65824        13.35931        -5.20914
   N        6.22205        13.02565        -6.40781
   C        5.56505        11.89236        -6.55217
   C        6.91370        12.92913        -2.74188
   C        7.69523        13.98373        -2.44378
   C        8.15455        14.37731        -1.13897
   C        7.72733        13.81441         0.08741
   C        8.27786        14.27424         1.33229
   N        7.87833        13.72650         2.50901
   C        6.98287        12.78713         2.47037
   C        6.41914        12.34843         1.24922
   N        6.78110        12.84717         0.10360
   C        9.23167        15.28562         1.36553
   C        9.64803        15.86866         0.17461
   C        9.10917        15.42325        -1.07547
   N        9.52009        16.00574        -2.22682
   C       10.40827        16.95291        -2.15387
   C       10.94777        17.38250        -0.91654
   N       10.57573        16.86037         0.21269
   H        1.35097        -1.73893         2.26129
   H       -3.77862         0.83678         1.53197
   H       -2.91845        -0.62410         3.42071
   H        4.78159        -1.52882        -0.73744
   H        3.89219        -0.18681        -2.69904
   H        1.21872         2.40276        -2.09736
   H       -2.04112         3.02950        -4.82095
   H       -2.41973         0.15381        -1.96554
   H       -0.00176         4.19335        -5.23366
   H        1.93435         4.30568        -2.87163
   H        1.43281         4.00925        -6.78124
   H        2.23996         4.40182       -10.30283
   H       -0.10408         3.70574        -8.46959
   H        0.22790         3.06959       -10.15010
   H        2.21837         6.88570       -10.61501
   H        3.79330         6.09541       -10.54361
   H        3.64728         7.79963       -10.11623
   H        4.01563         8.07862        -7.87092
   H        4.74586         8.87819        -3.90248
   H        4.14632         9.73177        -6.77704
   H        5.57729        10.74681        -3.38094
   H        7.17714        14.30569        -5.15524
   H        5.23287        11.67187        -7.55914
   H        6.58304        12.28038        -1.94354
   H        8.07032        14.62267        -3.23133
   H        6.67909        12.35834         3.41639
   H        5.65526        11.58212         1.22530
   H        9.64500        15.61021         2.30604
   H       10.71591        17.40438        -3.08781
   H       11.68834        18.17010        -0.87176
*
