# ORCA input file
# SCF done       -177.423510207528          0.000785308662
! CAM-B3LYP def2-SVP def2/J RIJCOSX Grid4 TightSCF
%maxcore 5000
%tddft
    Mode sTDDFT
    Ethresh 5.0
    maxcore 5000
end

%pal
  nprocs 6
  end
* xyz 0 1
   C        0.41559         0.96883        -0.39098
   S       -0.21556         2.21274         0.59522
   C       -1.14506         2.85028        -0.72631
   C       -0.98378         2.08696        -1.86430
   C       -0.07054         1.01155        -1.66799
   C        0.29217         0.06934        -2.73443
   O        1.10050        -0.82526        -2.57643
   C       -0.39675         0.30924        -4.02113
   C       -0.08277        -0.50910        -5.10352
   C       -0.69995        -0.33626        -6.32662
   C       -1.65849         0.65755        -6.50378
   C       -2.30044         0.87968        -7.84018
   C       -1.49554         1.90107        -8.64822
   C       -1.97480         1.47255        -5.42594
   C       -1.35978         1.31585        -4.18850
   C       -1.76653         2.22529        -3.09297
   O       -2.70154         2.99878        -3.20194
   C       -1.96403         4.01055        -0.49175
   N       -1.91555         5.18581        -1.19358
   C       -1.00017         5.52982        -2.25829
   C       -1.73490         5.85343        -3.55480
   C       -2.81232         6.13499        -0.66202
   O       -2.91528         7.27314        -1.08300
   C       -3.46083         5.45050         0.43039
   C       -2.89065         4.15301         0.52257
   C       -3.52336         3.45293         1.62223
   O       -3.35899         2.34244         2.07871
   N       -4.43686         4.39008         2.13719
   C       -5.31968         4.05751         3.23039
   C       -6.71660         3.68983         2.73712
   C       -4.41472         5.57652         1.43996
   C       -5.22463         6.68945         1.76517
   C       -5.17858         7.84956         1.05269
   C       -5.96634         8.97301         1.39017
   N       -5.95785        10.15018         0.67782
   C       -5.22365        10.40736        -0.53894
   C       -5.89986         9.77668        -1.75291
   C       -6.81596        11.10913         1.23338
   O       -6.97208        12.22464         0.77523
   C       -7.38558        10.45409         2.39260
   C       -6.84711         9.14491         2.45993
   C       -7.40607         8.49387         3.62093
   O       -7.25531         7.37765         4.08474
   N       -8.25641         9.45768         4.18557
   C       -8.96832         9.19828         5.41293
   C       -8.27633         9.83373         6.61677
   C       -8.25259        10.63354         3.46713
   C       -9.02876        11.76929         3.81398
   C       -9.01817        12.91095         3.08441
   C       -9.78727        14.06366         3.41141
   O       -9.73252        15.13086         2.57142
   C      -10.51748        16.10823         3.03673
   C      -11.09960        15.67334         4.23029
   C      -10.62821        14.36007         4.46008
   N      -11.93720        16.35252         5.14723
   O      -12.20115        17.52163         4.94740
   O      -12.33307        15.71156         6.10021
   C      -10.57286        17.33060         2.25929
   C      -11.68379        18.17548         2.20782
   C      -11.62083        19.30668         1.41436
   C      -10.46378        19.55034         0.68792
   N       -9.40926        18.75097         0.72067
   C       -9.45901        17.67850         1.47834
   H        1.11078         0.25421         0.00453
   H        0.65572        -1.28333        -4.95642
   H       -0.44239        -0.98176        -7.15379
   H       -3.31798         1.25033        -7.70459
   H       -2.34597        -0.06133        -8.39148
   H       -1.45135         2.85125        -8.12073
   H       -1.95811         2.06352        -9.61842
   H       -0.47873         1.54669        -8.80285
   H       -2.71769         2.25096        -5.52776
   H       -0.31293         4.69316        -2.40211
   H       -0.42822         6.40790        -1.93627
   H       -2.37265         5.02036        -3.83703
   H       -1.01452         6.03941        -4.34682
   H       -2.35039         6.73766        -3.41804
   H       -5.37204         4.89556         3.92952
   H       -4.86700         3.19819         3.73284
   H       -7.18046         4.53213         2.22955
   H       -7.33898         3.41026         3.58227
   H       -6.66232         2.84996         2.04830
   H       -5.89099         6.60965         2.61197
   H       -4.51430         7.92592         0.20385
   H       -4.20206        10.03357        -0.43742
   H       -5.19889        11.49462        -0.65277
   H       -5.93743         8.69458        -1.65485
   H       -5.33902        10.02278        -2.64979
   H       -6.91344        10.15681        -1.85792
   H       -8.98092         8.11088         5.53012
   H       -9.99857         9.55376         5.32208
   H       -7.27278         9.42920         6.72305
   H       -8.83665         9.61530         7.52157
   H       -8.20258        10.91286         6.50100
   H       -9.65262        11.70232         4.69300
   H       -8.40540        12.98860         2.19593
   H      -10.88650        13.75278         5.30198
   H      -12.57559        17.95444         2.77009
   H      -12.46021        19.98090         1.35453
   H      -10.37172        20.41786         0.04803
   H       -8.57268        17.05823         1.48251
*
