# ORCA input file
# SCF done       -138.292631720717          0.000222699618
! CAM-B3LYP def2-SVP def2/J RIJCOSX Grid4 TightSCF
%maxcore 5000
%tddft
    Mode sTDDFT
    Ethresh 5.0
    maxcore 5000
end

%pal
  nprocs 6
  end
* xyz 0 1
   C       -0.96016        -7.12961         1.48707
   C       -0.63498        -7.18682         0.13789
   N       -0.96692        -6.21966        -0.69388
   C       -1.58671        -5.14882        -0.19852
   C       -1.85267        -5.07313         1.17893
   N       -1.55900        -6.06213         1.99480
   C       -1.92104        -4.07070        -1.11496
   C       -3.11954        -3.34184        -1.01518
   C       -3.45079        -2.35585        -1.99699
   N       -4.59094        -1.65738        -1.88885
   C       -5.38948        -1.89826        -0.88327
   C       -5.07987        -2.89198         0.06357
   N       -3.98125        -3.59293        -0.00409
   C       -2.61584        -2.10686        -3.12087
   C       -1.33860        -2.73104        -3.11603
   C       -1.01040        -3.71787        -2.13007
   N        0.20880        -4.29772        -2.13733
   C        1.06292        -3.93818        -3.05214
   C        0.76597        -2.91543        -3.97387
   N       -0.40074        -2.32984        -3.99206
   C       -3.05413        -1.21797        -4.13244
   S       -4.20390         0.01328        -3.73295
   C       -4.06974         0.76819        -5.29550
   C       -3.23278         0.00843        -6.14112
   C       -2.67914        -1.13112        -5.49400
   C       -1.96482        -2.05850        -6.26092
   C       -1.71254        -1.82994        -7.59802
   C       -0.97557        -2.82194        -8.37767
   C       -0.03141        -3.61487        -7.88730
   C       -2.19153        -0.64276        -8.21881
   C       -1.88440        -0.36291        -9.65824
   C       -2.95134         0.24154        -7.49526
   C       -4.74430         1.95088        -5.62554
   C       -5.64650         2.56277        -4.80229
   C       -6.37666         3.74950        -5.05812
   C       -6.24075         4.57203        -6.21093
   C       -7.00520         5.77737        -6.34598
   N       -6.91990         6.51563        -7.47295
   C       -6.05513         6.16348        -8.38017
   C       -5.25305         5.01743        -8.22288
   N       -5.37549         4.23223        -7.18688
   C       -7.88044         6.20742        -5.32956
   C       -8.05205         5.38779        -4.20025
   C       -7.31568         4.16935        -4.07013
   N       -7.49552         3.39124        -2.98469
   C       -8.32889         3.79115        -2.06272
   C       -9.02334         5.01117        -2.17283
   N       -8.89049         5.78437        -3.21395
   C       -8.56257         7.48309        -5.46883
   C       -9.90588         7.65714        -5.09422
   N      -10.50892         8.82038        -5.20536
   C       -9.82550         9.82729        -5.72984
   C       -8.52134         9.64583        -6.17209
   N       -7.89393         8.49703        -6.01701
   H       -0.74839        -7.93868         2.17161
   H       -0.12229        -8.03529        -0.29452
   H       -2.30315        -4.19538         1.61682
   H       -6.29109        -1.30551        -0.82265
   H       -5.74399        -3.11471         0.88779
   H        2.02961        -4.42316        -3.03463
   H        1.50454        -2.54291        -4.67134
   H       -1.64186        -2.98364        -5.81566
   H       -1.23014        -2.88938        -9.42684
   H        0.28186        -3.56116        -6.85808
   H        0.47468        -4.33858        -8.50332
   H       -2.39343        -1.07698       -10.30621
   H       -0.81477        -0.44157        -9.84555
   H       -2.21418         0.63650        -9.93048
   H       -3.35210         1.12294        -7.97298
   H       -4.53615         2.39492        -6.58741
   H       -5.87000         2.09955        -3.84906
   H       -6.01218         6.76779        -9.27630
   H       -4.53836         4.71580        -8.97750
   H       -8.45931         3.13857        -1.20991
   H       -9.69987         5.35143        -1.40016
   H      -10.49221         6.83760        -4.70725
   H      -10.33242        10.78010        -5.78706
   H       -7.95448        10.44303        -6.63341
*
