# ORCA input file
# SCF done       -146.447200126603          0.000311613202
! CAM-B3LYP def2-SVP def2/J RIJCOSX Grid4 TightSCF
%maxcore 5000
%tddft
    Mode sTDDFT
    Ethresh 5.0
    maxcore 5000
end

%pal
  nprocs 6
  end
* xyz 0 1
   C        3.91462        -9.79819         5.89692
   C        2.95110       -10.73829         5.70393
   S        3.47050       -12.28829         6.25922
   C        5.02255       -11.65896         6.76343
  Cl        6.19360       -12.65900         7.46832
   C        5.10155       -10.32411         6.50346
   C        6.08395        -9.24954         6.67382
   O        7.19763        -9.33105         7.15095
   C        5.42603        -8.03855         6.13731
   C        4.09632        -8.37835         5.66210
   C        3.15368        -7.55853         5.09491
   C        1.90045        -8.06028         4.68563
   N        0.87615        -8.45056         4.34652
   C        3.29163        -6.17845         4.85416
   N        3.34271        -5.05181         4.63301
   C        5.97431        -6.78463         6.09199
   C        7.22650        -6.31349         6.51017
   S        8.54152        -7.22971         7.24986
   C        9.53176        -5.82313         7.36801
   C        8.91666        -4.71441         6.88091
   C        7.60653        -4.97822         6.38804
   C        7.02943        -3.77049         5.89871
   C        7.92547        -2.74182         6.06500
   C        9.18608        -3.27527         6.70285
   O       10.16799        -2.63645         6.99048
   C        7.83101        -1.36553         5.75771
   C        6.76368        -0.75433         5.17708
   C        6.67735         0.62849         4.89985
   S        5.23386         1.23207         4.07462
   C        5.80265         2.85909         4.10410
   C        7.01335         2.94440         4.70394
   C        7.52788         1.68842         5.16199
   C        8.79171         1.93423         5.78296
   C        9.09365         3.27088         5.73730
   C        7.98200         4.00756         5.04865
   O        7.88429         5.19248         4.83295
   C       10.27411         3.86062         6.27807
   C       10.56302         5.17676         6.21872
   C       11.73901         5.80911         6.76635
   C       11.94966         7.17106         6.53632
   C       13.08126         7.79613         7.04826
   C       13.94955         7.02248         7.82541
   N       13.75356         5.74255         8.06701
   C       12.69613         5.14990         7.55185
   C       13.34217         9.20551         6.81625
   S       13.73193        10.24082         8.14130
   C       13.80766        11.62335         7.14726
   C       13.56046        11.32000         5.82952
   C       13.30310         9.91797         5.62737
   C       13.12032         9.44390         4.29511
   C       13.02010         8.06742         3.99608
   N       12.97382         6.96342         3.68794
   C       13.11241        10.34014         3.24726
   C       13.30292        11.71441         3.45477
   C       13.54194        12.20983         4.71534
   C       13.77802        13.58478         4.92508
   N       13.96926        14.70167         5.10141
   H        1.97362       -10.63461         5.27643
   H        5.35620        -6.00310         5.66727
   H       10.51387        -5.89965         7.79394
   H        6.04556        -3.69010         5.47144
   H        8.70483        -0.78854         6.02254
   H        5.90316        -1.34590         4.89496
   H        5.20430         3.64066         3.67818
   H        9.42481         1.18890         6.23001
   H       10.95500         3.16791         6.75661
   H        9.87277         5.83718         5.71245
   H       11.22100         7.73731         5.97309
   H       14.83888         7.46003         8.26048
   H       12.59967         4.10103         7.79340
   H       14.02311        12.58508         7.56814
   H       12.97182         9.97339         2.24145
   H       13.28452        12.38562         2.60943
*
