# ORCA input file
# SCF done       -140.217767636589          0.000769494896
! CAM-B3LYP def2-SVP def2/J RIJCOSX Grid4 TightSCF
%maxcore 5000
%tddft
    Mode sTDDFT
    Ethresh 5.0
    maxcore 5000
end

%pal
  nprocs 6
  end
* xyz 0 2
   C        5.82625         2.48305        -0.63544
   C        6.00797         3.52467         0.22162
   S        7.65787         4.02868         0.24735
   C        8.11161         2.82359        -0.93115
  Cl        9.70731         2.66917        -1.46978
   C        7.03199         2.08170        -1.29657
   C        6.75650         0.95475        -2.19013
   O        7.47418         0.48537        -3.04128
   C        5.33193         0.58515        -1.90123
   C        4.74082         1.62964        -1.06903
   C        3.42556         1.79656        -0.72376
   C        3.01534         2.85167         0.11695
   N        2.66182         3.70324         0.80057
   C        2.35578         0.99363        -1.16295
   N        1.44043         0.38541        -1.49708
   C        4.72741        -0.54928        -2.32004
   C        5.41311        -1.69416        -2.91025
   C        4.83460        -2.46360        -3.84551
   C        6.68649        -1.97422        -2.36655
   C        7.73884        -2.10111        -1.78030
   C        8.95589        -2.11124        -1.10656
   C       10.14043        -2.41336        -1.68193
   C       11.39020        -2.27250        -1.02285
   S       12.83451        -2.91677        -1.72929
   C       13.85571        -2.37136        -0.44568
   C       13.10133        -1.68859         0.50333
   C       11.70545        -1.62370         0.17421
   N       10.84814        -0.94738         0.96393
   C       11.32060        -0.37067         2.04349
   C       10.34394         0.40526         2.87532
   C        9.59053         1.43766         2.02018
   O        8.73740         0.85083         1.07576
   C       12.70699        -0.47846         2.38920
   C       13.27339         0.12828         3.64435
   N       13.06340         1.57219         3.65811
   N       13.56315        -1.11131         1.63281
   C       15.27561        -2.64709        -0.48212
   C       16.11148        -2.32904         0.52962
   C       15.72706        -3.27238        -1.65753
   C       16.03880        -3.78771        -2.71505
   C       16.36797        -4.36367        -3.92093
   C       15.41595        -4.59734        -4.89384
   C       15.67249        -5.14506        -6.13334
   S       17.26659        -5.63083        -6.65723
   C       16.79984        -6.16125        -8.25839
   C       15.47627        -6.03603        -8.56208
   S       14.41407        -5.40436        -7.31302
   C       14.68412        -6.29658        -9.77299
   O       13.47643        -6.20387        -9.68186
   C       15.36056        -6.61738       -11.07682
   C       17.84551        -6.71812        -9.08578
   C       19.14490        -6.58217        -8.83260
   H        5.29487         4.02664         0.84471
   H        3.66212        -0.67259        -2.17284
   H        3.85428        -2.23405        -4.22638
   H        5.34506        -3.31208        -4.26609
   H        8.92067        -1.80241        -0.07047
   H       10.16882        -2.77013        -2.70271
   H       10.86527         0.92887         3.67245
   H        9.61040        -0.28449         3.30095
   H       10.32415         2.09263         1.52405
   H        8.95975         2.05531         2.66516
   H        9.25822         0.16028         0.62859
   H       14.33317        -0.16544         3.69735
   H       12.75723        -0.29335         4.51400
   H       13.52845         1.99668         2.86219
   H       13.46506         1.97337         4.49852
   H       15.73834        -1.85025         1.41535
   H       17.16235        -2.54874         0.46343
   H       17.40220        -4.62653        -4.10207
   H       14.38869        -4.33016        -4.68501
   H       15.70799        -7.64938       -11.06874
   H       16.20180        -5.95388       -11.25816
   H       14.62885        -6.51207       -11.87473
   H       17.52473        -7.29052        -9.94096
   H       19.50729        -6.01485        -7.99153
   H       19.88660        -7.03062        -9.46931
*
