# ORCA input file
# SCF done       -184.704496563394          0.000404781920
! CAM-B3LYP def2-SVP def2/J RIJCOSX Grid4 TightSCF
%maxcore 5000
%tddft
    Mode sTDDFT
    Ethresh 5.0
    maxcore 5000
end

%pal
  nprocs 6
  end
* xyz 0 1
   C        1.64486        -3.82804         5.70634
   S        0.31996        -4.50299         4.87844
   C        1.17940        -4.55701         3.36638
   C        2.47936        -4.04797         3.53151
   C        2.73575        -3.63283         4.88346
   C        3.99388        -3.09836         5.23427
   C        4.96527        -2.98323         4.27366
   C        6.23423        -2.45203         4.60576
   N        7.25516        -2.02065         4.89484
   C        4.71213        -3.39808         2.92649
   C        5.73818        -3.27174         1.96259
   N        6.56079        -3.18015         1.17019
   C        3.49028        -3.91864         2.56678
   C        0.59579        -5.04846         2.18317
   C       -0.65554        -5.58893         2.11965
   C       -1.31752        -6.09510         0.98673
   S       -2.69398        -7.12395         1.26028
   C       -2.92526        -7.45110        -0.43025
   C       -1.97273        -6.73924        -1.19427
   C       -1.08078        -5.95389        -0.39758
   C       -0.16246        -5.10686        -1.03697
   C       -0.08342        -5.08844        -2.41220
   C        0.83490        -4.22120        -3.04854
   N        1.58545        -3.50785        -3.53860
   C       -0.92944        -5.92110        -3.19912
   C       -0.82437        -5.89656        -4.60879
   N       -0.75875        -5.89023        -5.75254
   C       -1.86961        -6.72369        -2.59087
   C       -3.93321        -8.29345        -0.90386
   C       -4.88655        -8.89184        -0.11957
   C       -5.89826        -9.72172        -0.60481
   S       -6.01049       -10.16102        -2.28646
   C       -7.45552       -11.10367        -2.05162
   C       -7.83885       -11.07920        -0.69064
   C       -6.95793       -10.30751         0.12486
   C       -7.20253       -10.19051         1.49886
   C       -8.29341       -10.82500         2.05383
   C       -8.54562       -10.70916         3.44006
   N       -8.73093       -10.60064         4.56557
   C       -9.17142       -11.59718         1.23995
   C      -10.28473       -12.24175         1.82585
   N      -11.19376       -12.77381         2.27709
   C       -8.94238       -11.71959        -0.11414
   C       -8.09810       -11.75558        -3.10405
   C       -7.62896       -11.80018        -4.39348
   C       -8.28399       -12.42313        -5.45583
   S       -9.86086       -13.14131        -5.28464
   C       -9.93922       -13.61842        -6.95477
   C       -8.75446       -13.24611        -7.62762
   C       -7.82420       -12.56616        -6.78476
   C       -6.59881       -12.13021        -7.30377
   C       -6.29878       -12.36211        -8.62877
   C       -5.05945       -11.93136        -9.15626
   N       -4.04808       -11.57487        -9.55947
   C       -7.22734       -13.03828        -9.47182
   C       -6.89853       -13.26223       -10.82922
   N       -6.64869       -13.44948       -11.93129
   C       -8.43690       -13.47171        -8.97444
   C      -11.05908       -14.26488        -7.49568
   C      -12.20569       -14.50494        -6.78965
   C      -13.38845       -15.12360        -7.22958
   S      -14.80185       -14.91182        -6.23541
   C      -15.83161       -15.76778        -7.32098
   C      -15.09951       -16.24140        -8.41830
   C      -13.70730       -15.89520        -8.36540
   C      -12.84429       -16.38508        -9.35728
   C      -13.34350       -17.13567       -10.39817
   C      -12.46625       -17.62885       -11.39067
   N      -11.73434       -18.01550       -12.18305
   C      -14.73762       -17.43021       -10.47870
   C      -15.22965       -18.18982       -11.56554
   N      -15.64913       -18.80376       -12.43703
   C      -15.59455       -16.99876        -9.49540
   C      -17.22882       -15.93112        -7.06885
   C      -17.86660       -15.46009        -5.99492
   H        1.56679        -3.60629         6.75195
   H        4.18340        -2.78616         6.25001
   H        3.32447        -4.22444         1.54479
   H        1.22060        -5.01589         1.30433
   H       -1.19791        -5.69776         3.05221
   H        0.46084        -4.43520        -0.47003
   H       -2.52742        -7.32559        -3.19863
   H       -3.96336        -8.46990        -1.97084
   H       -4.87325        -8.70063         0.94524
   H       -6.54657        -9.60987         2.12905
   H       -9.61593       -12.30902        -0.71703
   H       -9.02607       -12.26301        -2.87625
   H       -6.68149       -11.32546        -4.61174
   H       -5.88461       -11.61768        -6.67789
   H       -9.12600       -13.98306        -9.62893
   H      -10.99488       -14.52973        -8.53906
   H      -12.24460       -14.12693        -5.77389
   H      -11.78221       -16.21097        -9.30462
   H      -16.64209       -17.25107        -9.55270
   H      -17.77891       -16.47900        -7.82143
   H      -17.34903       -14.90951        -5.22653
   H      -18.92135       -15.61293        -5.85651
*
