# ORCA input file
# SCF done       -179.153361579660          0.000226545972
! CAM-B3LYP def2-SVP def2/J RIJCOSX Grid4 TightSCF
%maxcore 5000
%tddft
    Mode sTDDFT
    Ethresh 5.0
    maxcore 5000
end

%pal
  nprocs 6
  end
* xyz 0 1
   C        1.10195        14.12582        -3.22354
   S        2.28213        12.89036        -3.21126
   C        1.81075        12.40867        -1.59799
   C        0.78463        13.20677        -1.12436
   C        0.37924        14.18209        -2.06429
   C       -0.69545        15.17544        -1.78839
   S        0.04644        16.86107        -1.58606
   C       -1.52903        14.78309        -0.57285
   C       -0.64236        14.32977         0.58181
   C        0.12014        13.05983         0.20805
   C        2.44708        11.32855        -0.93155
   C        3.45694        10.59615        -1.45914
   C        4.11572         9.53054        -0.79770
   C        3.83215         8.97010         0.52821
   N        4.63384         8.01126         0.89204
   C        5.50652         7.85066        -0.14759
   C        5.18701         8.77794        -1.23581
   C        6.13549         8.63380        -2.30759
   S        6.19630         9.52760        -3.69192
   C        7.03617         7.60317        -1.85161
   C        6.62643         7.14686        -0.51375
   N        7.51106         6.23162        -0.02342
   C        8.44571         6.13781        -0.92579
   C        8.23636         6.97334        -2.10836
   C        9.11565         7.06680        -3.23979
   C        8.61169         7.38352        -4.48550
   C        9.48461         7.52310        -5.57583
   C        9.23035         7.84602        -6.90625
   C        7.89187         8.07937        -7.51506
   C        7.76374         9.51064        -8.07565
   N        6.36668         9.87661        -8.17034
   C        7.58660         7.01152        -8.58178
   N        7.50607         5.71217        -7.94258
   C       10.51172         7.89338        -7.57145
   C       10.85985         8.19584        -8.83747
   C       12.27694         8.15196        -9.29488
   C       13.27228         7.85354        -8.22284
   C       12.91437         7.56226        -6.95776
   C       11.55103         7.56536        -6.58086
   C       10.91400         7.34032        -5.37569
   C       11.39655         6.98699        -4.09460
   C       10.52094         6.84710        -3.06649
   C       12.36361         7.08203       -10.35920
   C       12.47397         7.34723       -11.66388
   C       12.55990         6.36362       -12.69951
   C       12.69062         4.91399       -12.57315
   N       12.77231         4.27824       -13.71035
   C       12.69826         5.24152       -14.67220
   C       12.54604         6.56774       -14.06050
   C       12.48279         7.58514       -15.07774
   S       12.35136         9.20876       -14.84072
   C       12.61007         6.85597       -16.31427
   C       12.74790         5.41549       -16.03263
   N       12.90015         4.71212       -17.18748
   C       12.91535         5.59987       -18.13953
   C       12.75670         6.98598       -17.67626
   C       12.72985         8.14815       -18.49930
   S       11.79064         9.52623       -18.02678
   C       12.25795        10.40293       -19.44717
   C       13.12039         9.66016       -20.23444
   C       13.39003         8.38538       -19.69517
   C       14.34900         7.43682       -20.34213
   S       15.45498         6.61534       -19.10914
   C       15.19089         8.13115       -21.40634
   C       14.27995         8.94022       -22.32159
   C       13.68929        10.11248       -21.54314
   C       11.70848        11.72440       -19.59999
   C       12.11056        12.69019       -20.42381
   H        1.00158        14.75972        -4.08265
   H       -1.33443        15.30899        -2.66516
   H        0.95674        16.51333        -0.67944
   H       -2.19566        13.96550        -0.86027
   H       -2.14410        15.63142        -0.26878
   H       -1.25433        14.14151         1.46509
   H        0.06496        15.12377         0.83301
   H       -0.57901        12.21751         0.16081
   H        0.85920        12.82972         0.97847
   H        2.07818        11.10211         0.05930
   H        3.81738        10.83059        -2.45328
   H        3.03313         9.27679         1.18049
   H        9.26270         5.45076        -0.78706
   H        7.55051         7.51004        -4.62390
   H        7.13195         7.98109        -6.73637
   H        8.30437         9.58489        -9.03441
   H        8.23554        10.19868        -7.36887
   H        5.89737         9.35606        -8.90191
   H        6.25854        10.86504        -8.35974
   H        8.34679         7.05924        -9.38077
   H        6.60968         7.21406        -9.02840
   H        8.39222         5.47659        -7.50789
   H        7.27722         4.98996        -8.61549
   H       10.13374         8.45535        -9.59425
   H       12.51982         9.11279        -9.76906
   H       14.30746         7.85423        -8.52839
   H       13.66251         7.34001        -6.21061
   H       12.45602         6.83929        -3.94446
   H       10.88040         6.59692        -2.07969
   H       12.31218         6.06778        -9.99073
   H       12.49750         8.37365       -12.01005
   H       12.72111         4.36591       -11.64781
   H       12.95316         5.28440       -19.16609
   H       13.81017         6.59788       -20.79438
   H       15.85063         7.74098       -18.51475
   H       15.74891         7.38214       -21.96946
   H       15.91064         8.79948       -20.92720
   H       13.47815         8.30039       -22.69644
   H       14.84270         9.31332       -23.17816
   H       12.90713        10.59935       -22.12997
   H       14.47574        10.85088       -21.35542
   H       10.88523        11.92750       -18.92551
   H       12.94594        12.59114       -21.09113
   H       11.60742        13.64160       -20.43190
*
