# ORCA input file
# SCF done       -197.835798833413          0.000630490894
! CAM-B3LYP def2-SVP def2/J RIJCOSX Grid4 TightSCF
%maxcore 5000
%tddft
    Mode sTDDFT
    Ethresh 5.0
    maxcore 5000
end

%pal
  nprocs 6
  end
* xyz 0 1
   C       -2.85674         0.36442         1.90551
   C       -1.77849        -0.15563         2.61603
   C       -1.30676        -1.49873         2.38432
   N       -0.23999        -1.97149         3.06035
   C        0.31131        -1.21383         3.96725
   C       -0.18745         0.11464         4.23235
   N       -1.18101         0.61129         3.55235
   C        0.42939         0.89616         5.24446
   N        0.95192         1.49231         6.07019
   C        1.41908        -1.71594         4.69746
   N        2.30693        -2.10640         5.30574
   C       -1.93696        -2.34076         1.45818
   C       -3.03189        -1.82460         0.76645
   C       -3.48112        -0.46281         0.98388
   N       -4.54195        -0.17370         0.21419
   S       -4.91616        -1.45312        -0.65449
   N       -3.79529        -2.46383        -0.13055
   C       -1.45436        -3.70394         1.25804
   C       -1.31469        -4.59086         2.33095
   C       -1.76206        -4.29382         3.71001
   O       -2.45015        -3.38931         4.08329
   S       -1.17445        -5.58431         4.79387
   C       -0.47946        -6.55335         3.44003
   O        0.15390        -7.54533         3.62416
   C       -0.76764        -5.85945         2.16762
   C       -0.44113        -6.37097         0.89743
   C       -0.65867        -5.50262        -0.19140
   C       -1.09018        -4.19203         0.00047
   C       -1.13661        -3.37694        -1.23375
   O       -1.22532        -2.19038        -1.33120
   S       -0.99358        -4.47227        -2.63584
   C       -0.59181        -5.89777        -1.61430
   O       -0.38707        -6.97460        -2.08652
   C        0.06032        -7.71274         0.73438
   O       -0.57312        -8.73829         1.37732
   C        0.09095        -9.83122         1.00020
   C        0.32964       -11.31324         1.04786
   C        1.52478       -11.02461         0.07696
   C        1.12156        -9.56578         0.14934
   C        1.13984        -8.16871        -0.04632
   C        2.05359        -7.34953        -0.79034
   C        2.74793        -7.86210        -1.81854
   C        3.70262        -7.22754        -2.69271
   C        3.63004        -5.91416        -3.21640
   C        2.64110        -4.87634        -2.85623
   O        1.83354        -4.86004        -1.97113
   S        2.79889        -3.46866        -3.95316
   C        4.16665        -4.18812        -4.84086
   O        4.65447        -3.68544        -5.80947
   C        4.50340        -5.48777        -4.22151
   C        5.56796        -6.26518        -4.68226
   C        5.70062        -7.52829        -4.10206
   C        4.77964        -8.00896        -3.17894
   C        5.07051        -9.38577        -2.72478
   O        4.47949       -10.06231        -1.93799
   S        6.55873        -9.98010        -3.54703
   C        6.83315        -8.43373        -4.39324
   O        7.81144        -8.20639        -5.04051
   C        6.49663        -5.79223        -5.70614
   C        7.25297        -4.62977        -5.51358
   C        8.17058        -4.16165        -6.52363
   N        8.86148        -3.01985        -6.32224
   C        8.67657        -2.36015        -5.21452
   C        7.78286        -2.84901        -4.19174
   N        7.11211        -3.95600        -4.35383
   C        7.62729        -2.12424        -2.98225
   N        7.50974        -1.51949        -2.01711
   C        9.37997        -1.14599        -4.99782
   N        9.92903        -0.16433        -4.78527
   C        8.35573        -4.85932        -7.71390
   C        7.61304        -6.01453        -7.90652
   C        6.67316        -6.48064        -6.90572
   N        6.04169        -7.59673        -7.29512
   S        6.59260        -8.01312        -8.73667
   N        7.62770        -6.82835        -8.97343
   H       -3.19653         1.36977         2.08949
   H       -0.46773       -11.92490         0.63129
   H        0.61237       -11.69530         2.02623
   H        1.42912       -11.47264        -0.90856
   H        2.50815       -11.24089         0.48475
   H        2.16487        -6.32856        -0.46299
   H        2.60733        -8.91713        -2.01352
   H        9.04727        -4.49700        -8.45585
*
