# ORCA input file
# SCF done       -227.163326693325          0.000706742287
! CAM-B3LYP def2-SVP def2/J RIJCOSX Grid4 TightSCF
%maxcore 5000
%tddft
    Mode sTDDFT
    Ethresh 5.0
    maxcore 5000
end

%pal
  nprocs 6
  end
* xyz 0 1
   C        8.77733        12.64248         0.34004
   C        8.25421        13.94771         0.86117
   O        7.62651        14.76116         0.22296
   C        8.62482        13.96857         2.28411
   C        9.43681        12.86963         2.56993
   C        9.67583        12.11071         1.34770
   C       10.70389        11.23335         1.13998
   C       11.00806        10.67550        -0.11823
   N       11.29348        10.21034        -1.12790
   C       11.62477        10.83742         2.13329
   N       12.40267        10.47802         2.89625
   C        9.89892        12.64385         3.87305
   C        9.54328        13.52653         4.85914
   C        8.73415        14.65530         4.60138
   C        8.25338        14.89283         3.28075
   C        7.44037        16.01648         3.02946
   C        7.11827        16.87249         4.04660
   C        7.59033        16.64444         5.34907
   C        8.38011        15.56117         5.62165
   C        8.30101        12.17924        -0.83595
   C        8.34956        10.85929        -1.40938
   C        8.34511         9.67093        -0.66581
   F        8.30652         9.72862         0.67626
   C        8.32034         8.43410        -1.27402
   F        8.29388         7.34359        -0.48930
   C        8.30043         8.26548        -2.67141
   C        8.30157         9.46054        -3.41181
   C        8.30677        10.69976        -2.80217
   F        8.29370        11.79736        -3.57031
   F        8.28931         9.43137        -4.75264
   C        8.25676         6.93065        -3.20438
   C        8.04943         6.57297        -4.48995
   C        7.92905         5.22179        -4.97254
   C        7.44521         5.02841        -6.24891
   C        7.21042         3.72669        -6.73179
   C        6.67001         3.28572        -7.93099
   C        6.21659         4.14149        -9.06443
   C        6.82853         3.70980       -10.41066
   N        7.03275         4.88093       -11.24186
   C        4.67809         4.18640        -9.12868
   N        4.17090         4.89670        -7.97038
   C        6.57806         1.84526        -7.83784
   C        6.05444         0.92631        -8.66875
   C        5.98560        -0.51874        -8.29340
   C        6.67916        -0.86621        -7.01709
   C        7.19062         0.06554        -6.19258
   C        7.13654         1.43758        -6.53741
   C        7.51183         2.58631        -5.87509
   C        8.06948         2.81334        -4.59348
   C        8.26244         4.08319        -4.16118
   C        6.37436        -1.35720        -9.48085
   C        7.47119        -2.11462        -9.52943
   C        7.88148        -2.98383       -10.61606
   C        7.21128        -3.15306       -11.83470
   F        6.10122        -2.44985       -12.11009
   C        7.65258        -4.04677       -12.79207
   F        6.94883        -4.15561       -13.93096
   C        8.80014        -4.83806       -12.63009
   C        9.48017        -4.66036       -11.41788
   C        9.03165        -3.77176       -10.45680
   F        9.72640        -3.67631        -9.31312
   F       10.57542        -5.37948       -11.14185
   C        9.18053        -5.72706       -13.69935
   C       10.33091        -6.41657       -13.82918
   C       10.61095        -7.26605       -14.94504
   C       10.17080        -7.19284       -16.22327
   C       10.31588        -8.39904       -17.10013
   O       11.01764        -9.35711       -16.86815
   C        9.39801        -8.17096       -18.22584
   C        8.86922        -6.88193       -18.13863
   C        9.45508        -6.19048       -16.99400
   C        9.50110        -4.83231       -16.83730
   C       10.21763        -4.16332       -15.82366
   N       10.78699        -3.55034       -15.03809
   C        8.88831        -3.91188       -17.71558
   N        8.41819        -3.11212       -18.39058
   C        7.92951        -6.43266       -19.07596
   C        7.55222        -7.27777       -20.08655
   C        8.08277        -8.58051       -20.21460
   C        9.03057        -9.05357       -19.26078
   C        9.55104       -10.35733       -19.38689
   C        9.15102       -11.15930       -20.42035
   C        8.21963       -10.69771       -21.36415
   C        7.69618        -9.43763       -21.26456
   H       10.50832        11.78463         4.10076
   H        9.88527        13.36404         5.87110
   H        7.08318        16.18205         2.02536
   H        6.49570        17.73329         3.85360
   H        7.32318        17.33309         6.13694
   H        8.74454        15.38346         6.62310
   H        7.74701        12.90854        -1.42103
   H        8.36011         6.16122        -2.45281
   H        7.90041         7.33047        -5.24457
   H        7.20237         5.87830        -6.86950
   H        6.55748         5.16340        -8.87976
   H        6.18970         2.94582       -10.88601
   H        7.80995         3.26167       -10.23156
   H        6.14680         5.31853       -11.46995
   H        7.49352         4.63246       -12.10951
   H        4.28829         3.15685        -9.21820
   H        4.36677         4.74504       -10.01623
   H        4.44246         4.41730        -7.11817
   H        3.15935         4.95360        -7.99461
   H        5.63915         1.18774        -9.63126
   H        4.91020        -0.72565        -8.13358
   H        6.69818        -1.91387        -6.75859
   H        7.64893        -0.21966        -5.25701
   H        8.32785         1.97016        -3.96985
   H        8.69123         4.25249        -3.18638
   H        5.68969        -1.29284       -10.31191
   H        8.13640        -2.12549        -8.67687
   H        8.43139        -5.82736       -14.47454
   H       11.08011        -6.40360       -13.05263
   H       11.23454        -8.13064       -14.73451
   H        7.49879        -5.44786       -18.99823
   H        6.82540        -6.94848       -20.81492
   H       10.26584       -10.70179       -18.65638
   H        9.55096       -12.15742       -20.51754
   H        7.91807       -11.34803       -22.17180
   H        6.97937        -9.08006       -21.98945
*
