# ORCA input file
# SCF done       -208.963219171405          0.000434833469
! CAM-B3LYP def2-SVP def2/J RIJCOSX Grid4 TightSCF
%maxcore 5000
%tddft
    Mode sTDDFT
    Ethresh 5.0
    maxcore 5000
end

%pal
  nprocs 6
  end
* xyz 0 1
   C       15.21463        -1.36710         1.08604
   C       16.66476        -1.02490         1.19161
   O       17.13126         0.09041         1.22986
   C       17.35246        -2.32368         1.29931
   C       16.43183        -3.35890         1.12040
   C       15.11945        -2.79157         0.83375
   C       14.07378        -3.42923         0.22302
   C       12.93591        -2.75893        -0.27748
   N       12.02678        -2.25809        -0.76716
   C       14.05481        -4.80776        -0.07613
   N       13.98562        -5.92526        -0.32692
   C       16.83707        -4.69738         1.20491
   C       18.15544        -4.97019         1.46133
   C       19.11433        -3.94771         1.63496
   C       18.71323        -2.58193         1.55561
   C       19.67285        -1.56461         1.73291
   C       20.97932        -1.88810         1.97656
   C       21.38033        -3.23144         2.05461
   C       20.46997        -4.23908         1.88822
   C       14.26359        -0.43444         1.32873
   C       12.89348        -0.66716         1.63281
   C       12.33278        -1.82475         2.34119
   N       11.05029        -1.75735         2.54556
   C       10.64833        -0.58271         1.98442
   C       11.80270         0.14697         1.43740
   C       11.37065         1.37417         0.81453
   S       12.30919         2.48572         0.05102
   C        9.94268         1.37592         1.00040
   C        9.52663         0.16439         1.73258
   N        8.17488         0.15485         1.90345
   C        7.73456         1.21560         1.29099
   C        8.78152         2.02399         0.65861
   C        8.63505         3.26299        -0.05709
   C        7.65612         3.59436        -1.05675
   C        6.70211         2.71724        -1.62031
   O        6.68447         1.47839        -1.09642
   C        5.91044         0.41689        -1.63237
   C        6.52427        -0.18003        -2.89163
   C        5.88777         3.24781        -2.61730
   C        6.00729         4.59538        -3.03911
   C        6.99028         5.46330        -2.50433
   C        7.80908         4.92616        -1.52102
   S        9.15819         5.70823        -0.71234
   C        9.50131         4.29642         0.17547
   O        6.99983         6.69744        -3.03805
   C        7.91071         7.68991        -2.59883
   C        7.60682         8.95848        -3.37970
   C        5.06782         4.94739        -4.02687
   C        4.24278         3.91269        -4.39285
   S        4.61281         2.45432        -3.51012
   C        3.14323         3.94819        -5.28623
   C        2.57029         5.15848        -5.89110
   N        1.46010         4.96046        -6.53473
   C        1.19887         3.62517        -6.41914
   C        2.28166         2.94960        -5.68374
   C        1.99632         1.54523        -5.58121
   S        3.01958         0.31937        -5.17153
   C        0.64322         1.42619        -6.06036
   C        0.21002         2.70651        -6.65619
   N       -1.05348         2.59931        -7.14876
   C       -1.43968         1.38929        -6.87246
   C       -0.44674         0.58903        -6.14377
   C       -0.66053        -0.74066        -5.69059
   C       -0.04287        -1.39823        -4.67962
   C       -0.10794        -2.89294        -4.62616
   O       -0.91625        -3.58660        -5.19952
   C        1.03899        -3.28961        -3.79381
   C        1.63753        -2.15073        -3.25099
   C        0.87344        -0.97147        -3.64189
   C        0.86261         0.22981        -2.98184
   C       -0.04999         1.26554        -3.26169
   N       -0.78278         2.13299        -3.43090
   C        1.77557         0.58416        -1.97026
   N        2.52462         0.94935        -1.17968
   C        2.78774        -2.25515        -2.45947
   C        3.30830        -3.49957        -2.21783
   C        2.71282        -4.67428        -2.72861
   C        1.54664        -4.57966        -3.54317
   C        0.95876        -5.75445        -4.05373
   C        1.50161        -6.97616        -3.76375
   C        2.64892        -7.07560        -2.96071
   C        3.24293        -5.95141        -2.45544
   H       16.12555        -5.49796         1.08300
   H       18.48432        -5.99666         1.53528
   H       19.35364        -0.53622         1.67172
   H       21.71412        -1.10868         2.11171
   H       22.41700        -3.46364         2.24844
   H       20.77651        -5.27336         1.94708
   H       14.59778         0.59821         1.35439
   H       12.90592        -2.64660         2.73517
   H        6.69120         1.47168         1.32420
   H        4.87736         0.73781        -1.79936
   H        5.91405        -0.32619        -0.82908
   H        6.58511         0.55826        -3.68701
   H        5.90809        -1.00481        -3.23785
   H        7.52556        -0.54758        -2.67920
   H       10.31762         4.30469         0.87081
   H        8.94133         7.36582        -2.78829
   H        7.78679         7.86616        -1.52334
   H        7.72452         8.77766        -4.44452
   H        8.28806         9.74686        -3.07503
   H        6.58540         9.27737        -3.19130
   H        5.01833         5.93492        -4.44616
   H        2.99661         6.14384        -5.82797
   H       -2.41909         1.04358        -7.15310
   H       -1.37639        -1.32696        -6.25975
   H        3.26612        -1.37391        -2.06487
   H        4.20074        -3.59917        -1.61681
   H        0.07842        -5.66631        -4.67059
   H        1.04909        -7.87605        -4.15257
   H        3.06079        -8.05027        -2.74496
   H        4.12587        -6.02552        -1.83740
*
