# ORCA input file
# SCF done       -167.497605143874          0.000355150847
! CAM-B3LYP def2-SVP def2/J RIJCOSX Grid4 TightSCF
%maxcore 5000
%tddft
    Mode sTDDFT
    Ethresh 5.0
    maxcore 5000
end

%pal
  nprocs 6
  end
* xyz 0 1
   C        9.52455         0.02688         3.71024
   S        8.86358         0.23494         2.13889
   C        7.52869         1.13943         2.77122
   C        7.58797         1.24516         4.15030
   C        8.75839         0.61441         4.67071
   O        9.05075         0.62166         6.00355
   C        6.48880         1.78624         4.98815
   O        5.35298         1.89886         4.60591
   O        6.81329         2.11066         6.24768
   C        6.58273         1.72904         1.87871
   C        6.08551         1.16525         0.62669
   N        5.17188         1.89063         0.04113
   C        5.00182         2.98073         0.83732
   C        5.91109         2.91934         1.99086
   C        5.76969         4.10508         2.79553
   S        6.85595         4.63801         3.91282
   C        4.62273         4.77118         2.24464
   C        4.22043         4.10195         0.99598
   N        3.16389         4.74750         0.42671
   C        2.88112         5.73374         1.23266
   C        3.72937         5.81047         2.41914
   C        3.57017         6.67081         3.55545
   C        4.12077         6.26362         4.75694
   C        4.01691         7.07419         5.89079
   C        4.54250         6.90136         7.17012
   C        5.45310         5.79731         7.57108
   C        6.85413         6.33973         7.90406
   N        7.36128         7.09873         6.77357
   C        4.90717         4.93459         8.72137
   N        5.78635         3.79682         8.92307
   C        4.11932         8.04484         7.94120
   C        4.34485         8.39873         9.22157
   C        3.77733         9.64449         9.80107
   C        3.01363        10.49494         8.83612
   C        2.79175        10.12897         7.55826
   C        3.32200         8.91764         7.06083
   C        3.27426         8.31874         5.81365
   C        2.68616         8.69403         4.58425
   C        2.83837         7.89769         3.49115
   C        2.81998         9.28420        10.91256
   C        2.84428         9.86348        12.11737
   C        1.92328         9.59816        13.17825
   C        0.84251         8.60829        13.22674
   N        0.16849         8.60130        14.34106
   C        0.72690         9.58189        15.11186
   C        1.84722        10.21517        14.40350
   C        2.45004        11.23241        15.23043
   S        3.82852        12.07062        14.91408
   C        1.62519        11.25928        16.40788
   C        0.60349        10.19631        16.33105
   N       -0.14032        10.15943        17.47274
   C        0.32822        11.11297        18.22455
   C        1.41904        11.87883        17.61959
   C        2.02323        13.03114        18.18958
   S        2.08937        13.27469        19.91396
   C        2.90934        14.75776        19.73321
   C        3.11413        15.09537        18.41762
   C        2.59030        14.10643        17.52137
   O        2.57881        14.22401        16.20145
   C        3.76649        16.29730        17.88082
   O        3.83630        16.50471        16.68948
   O        4.28701        17.17069        18.74947
   H       10.44366        -0.51025         3.83990
   H        9.84495         0.10235         6.17158
   H        7.73257         1.88093         6.46021
   H        6.40301         0.22751         0.20479
   H        2.05491         6.38722         1.01185
   H        4.60470         5.30431         4.82374
   H        5.57349         5.13129         6.71000
   H        7.47712         5.47695         8.18490
   H        6.80428         7.01799         8.76008
   H        7.36019         6.52128         5.93799
   H        8.31741         7.38944         6.94556
   H        3.87018         4.64991         8.47238
   H        4.88393         5.50594         9.65358
   H        5.84819         3.24731         8.07025
   H        5.42255         3.19465         9.65318
   H        4.91851         7.78008         9.89649
   H        4.59307        10.23550        10.23942
   H        2.61821        11.41661         9.23450
   H        2.22423        10.76519         6.89459
   H        2.12899         9.61710         4.51835
   H        2.41071         8.19164         2.54453
   H        2.06648         8.55618        10.64996
   H        3.59970        10.60492        12.34754
   H        0.59730         7.91121        12.44485
   H       -0.08394        11.30374        19.20071
   H        3.18341        15.29708        20.62044
   H        3.05341        15.05265        15.95851
   H        4.18365        16.89994        19.66998
*
