# ORCA input file
# SCF done       -221.190791920566          0.000398737462
! CAM-B3LYP def2-SVP def2/J RIJCOSX Grid4 TightSCF
%maxcore 5000
%tddft
    Mode sTDDFT
    Ethresh 5.0
    maxcore 5000
end

%pal
  nprocs 6
  end
* xyz 0 1
   C      -16.15898        -2.70019       -13.91097
   C      -17.44514        -2.22295       -13.95787
   C      -18.54986        -2.96960       -14.41704
   N      -19.49129        -3.51929       -14.77809
   C      -17.86604        -0.94090       -13.54962
   N      -18.29439         0.07800       -13.23501
   C      -15.74593        -4.04159       -14.31331
   C      -14.35499        -4.17905       -14.07546
   C      -13.66426        -5.33346       -14.35300
   C      -14.37916        -6.40701       -14.89342
   C      -15.76679        -6.26191       -15.12833
   C      -16.46571        -5.09323       -14.84629
   S      -16.44518        -7.71112       -15.80013
   C      -14.89760        -8.48268       -15.76155
   C      -13.91365        -7.69842       -15.26994
   C      -13.83854        -2.92174       -13.51416
   O      -12.68441        -2.69853       -13.18320
   C      -14.97762        -2.00373       -13.44181
   C      -14.92239        -0.69443       -13.02871
   C      -13.84841         0.06206       -12.54597
   S      -12.19397        -0.50284       -12.28464
   C      -11.75543         1.03565       -11.69841
   C      -12.82978         1.96642       -11.70982
   C      -13.99695         1.40875       -12.18399
   C      -12.38309         3.25648       -11.19557
   S      -13.26268         4.61922       -11.02480
   C      -10.98279         3.04337       -10.86864
   C      -10.63202         1.71652       -11.17928
   O       -9.35820         1.47661       -10.87882
   C       -8.85404         2.64047       -10.36272
   C       -9.83325         3.63501       -10.34379
   C       -7.50217         2.63315        -9.92669
   C       -6.88051         3.68493        -9.34719
   C       -5.53758         3.70715        -8.83321
   C       -4.65109         2.66222        -8.98533
   C       -3.37348         2.72333        -8.39835
   C       -2.33763         1.79819        -8.37443
   C       -2.32772         0.46588        -9.04508
   C       -1.15065         0.33073       -10.02996
   N       -1.49637        -0.63165       -11.05706
   C       -2.34760        -0.67207        -8.00826
   N       -2.56216        -1.95681        -8.65738
   C       -1.28912         2.36962        -7.56156
   C       -0.10007         1.88594        -7.15621
   C        0.78957         2.65703        -6.23783
   C        0.30963         4.03238        -5.91171
   C       -0.88392         4.50154        -6.31830
   C       -1.73101         3.70333        -7.12334
   C       -2.99563         3.90530        -7.63507
   C       -3.90762         4.98135        -7.52671
   C       -5.12815         4.87814        -8.10685
   C        2.20394         2.60709        -6.75344
   C        2.86560         3.64845        -7.26296
   C        4.22468         3.60159        -7.71125
   S        5.15410         2.11046        -7.64996
   C        6.53328         2.92339        -8.24512
   C        6.28661         4.28678        -8.48713
   C        4.97478         4.65796        -8.18370
   C        7.50256         4.93308        -8.96828
   S        7.69533         6.50454        -9.36330
   C        8.49230         3.86629        -8.99532
   C        7.88988         2.66990        -8.56157
   O        8.75194         1.66535        -8.55714
   C        9.95273         2.18471        -8.98319
   C        9.82183         3.54777        -9.26613
   C       11.05491         1.30756        -9.06426
   C       12.32495         1.67577        -9.38885
   C       13.37150         0.73495        -9.45223
   C       14.68063         0.92959        -9.78811
   C       15.40078         2.05730       -10.33586
   C       14.91033         3.03424       -11.16509
   C       15.69679         4.07318       -11.70454
   N       16.28106         4.95131       -12.15833
   C       13.59707         3.07592       -11.67593
   N       12.55993         3.14834       -12.16359
   C       16.81542         1.85541       -10.03025
   C       16.98932         0.54238        -9.52172
   C       15.67400        -0.11405        -9.41785
   O       15.43284        -1.24630        -9.06125
   C       18.22149         0.04127        -9.17815
   C       19.33261         0.87627        -9.33090
   C       19.14660         2.19023        -9.82258
   C       17.90136         2.69568       -10.17898
   S       20.65368         3.04611        -9.91355
   C       21.50275         1.66465        -9.31080
   C       20.70221         0.60875        -9.04908
   H      -12.60508        -5.40503       -14.15988
   H      -17.52239        -5.03455       -15.04612
   H      -14.81989        -9.49231       -16.11556
   H      -12.88902        -8.00845       -15.17124
   H      -15.84618        -0.13069       -13.07529
   H      -14.93511         1.92749       -12.27209
   H       -9.71339         4.63913        -9.99409
   H       -6.99255         1.69162       -10.07049
   H       -7.44325         4.59958        -9.21583
   H       -4.92885         1.78629        -9.55042
   H       -3.23586         0.37723        -9.64941
   H       -0.23479         0.06858        -9.47514
   H       -0.98094         1.29773       -10.51570
   H       -1.67840        -1.52883       -10.61560
   H       -0.73215        -0.74286       -11.71412
   H       -3.11806        -0.43549        -7.25359
   H       -1.38549        -0.72152        -7.49166
   H       -3.47822        -1.97429        -9.09518
   H       -2.53289        -2.70600        -7.97384
   H        0.26140         0.91445        -7.46038
   H        0.79875         2.08916        -5.28901
   H        0.96238         4.62405        -5.28796
   H       -1.21229         5.49143        -6.03649
   H       -3.62476         5.86766        -6.97817
   H       -5.83710         5.68922        -8.02354
   H        2.68535         1.63888        -6.70162
   H        2.38733         4.61563        -7.33843
   H        4.58522         5.65361        -8.29380
   H       10.59318         4.19154        -9.63484
   H       10.83790         0.26822        -8.85449
   H       12.53911         2.71598        -9.57434
   H       13.14165        -0.27233        -9.11794
   H       18.32412        -0.96476        -8.80189
   H       17.80973         3.70578       -10.54248
   H       22.56625         1.73105        -9.18738
   H       21.05308        -0.33352        -8.66871
*
