# ORCA input file
# SCF done       -171.578103464205          0.000241377679
! CAM-B3LYP def2-SVP def2/J RIJCOSX Grid4 TightSCF
%maxcore 5000
%tddft
    Mode sTDDFT
    Ethresh 5.0
    maxcore 5000
end

%pal
  nprocs 6
  end
* xyz 0 1
   C       -0.45088        -0.25147         3.77549
   N       -0.38273         0.99618         3.44173
   C        0.08426         1.02804         2.16850
   C        0.31750        -0.24921         1.70499
   N       -0.05043        -1.08621         2.75487
   C        0.35498        -2.42148         2.93651
   O        1.44177        -2.82155         2.62731
   N       -0.59418        -3.20679         3.57085
   C       -1.94864        -2.98100         3.74680
   C       -2.44102        -4.10499         4.32334
   N       -1.43954        -5.02067         4.51420
   C       -0.36555        -4.47863         4.05503
   C        0.73192        -0.69252         0.41454
   C        0.34926        -1.84158        -0.20287
   C        0.80513        -2.32082        -1.46579
   C        0.26345        -3.50405        -1.84796
   C       -0.66843        -4.04283        -0.92506
   S       -0.86309        -2.95554         0.43329
   C       -1.33851        -5.24259        -0.97960
   C       -1.27246        -6.22967        -1.99435
   C       -2.01280        -7.33942        -1.74015
   C       -2.71653        -7.30418        -0.50608
   S       -2.40383        -5.77294         0.30516
   C       -3.51713        -8.23137         0.10183
   C       -3.84883        -9.53142        -0.32129
   N       -4.57039       -10.33405         0.41666
   C       -4.74038       -11.52558        -0.15813
   C       -4.14108       -11.69506        -1.38710
   S       -3.31176       -10.27444        -1.85933
   C       -4.29592       -13.06806        -1.91383
   C       -5.44047       -13.61205        -0.99584
   C       -5.37899       -12.79600         0.32805
   C       -6.75210       -12.63347         1.00567
   C       -6.72563       -11.75796         2.25487
   C       -4.43655       -13.47615         1.35115
   C       -3.03797       -13.84511         0.87158
   N       -6.67336       -13.51083        -1.76463
   C       -6.40912       -14.10986        -3.02804
   S       -4.85974       -13.27769        -3.64755
   C       -7.31910       -12.27318        -1.85449
   C       -8.59041       -12.15914        -2.30495
   C       -9.52351       -13.18310        -2.65467
   C      -10.73965       -12.72054        -3.02654
   C      -10.85733       -11.30402        -3.00995
   S       -9.35007       -10.57399        -2.48443
   C      -11.95206       -10.54739        -3.33999
   C      -13.21922       -10.97012        -3.81813
   C      -14.07536        -9.95786        -4.09925
   C      -13.54521        -8.65223        -3.87635
   S      -11.91119        -8.79635        -3.22441
   C      -14.18509        -7.47071        -4.07503
   C      -13.62263        -6.17070        -3.89786
   C      -14.20235        -5.00854        -3.43944
   N      -13.27944        -4.01656        -3.34884
   C      -12.15405        -4.52842        -3.72600
   N      -12.27634        -5.85857        -4.06959
   C      -11.35776        -6.56221        -4.86643
   O      -11.65676        -7.09518        -5.89751
   N      -10.05856        -6.51764        -4.37886
   C       -8.94618        -6.95793        -5.07316
   C       -7.90426        -6.86124        -4.21218
   N       -8.33551        -6.39336        -2.99866
   C       -9.60451        -6.20159        -3.11476
   H       -0.74311        -0.61781         4.73940
   H        0.20569         1.95536         1.64658
   H       -2.42640        -2.07995         3.42506
   H       -3.44681        -4.32688         4.61686
   H        0.61075        -4.91877         4.04221
   H        1.37427        -0.01446        -0.12957
   H        1.53931        -1.77342        -2.02976
   H        0.51002        -4.01625        -2.76070
   H       -0.67541        -6.09250        -2.87814
   H       -2.06870        -8.18174        -2.40453
   H       -3.94454        -7.97198         1.06123
   H       -3.36448       -13.63237        -1.83789
   H       -5.30282       -14.68018        -0.79735
   H       -7.45847       -12.19215         0.30424
   H       -7.12504       -13.63089         1.25306
   H       -6.18946       -10.83522         2.05135
   H       -6.25402       -12.26330         3.09305
   H       -7.74467       -11.51143         2.54366
   H       -4.32696       -12.78223         2.18431
   H       -4.93320       -14.37623         1.72112
   H       -2.52911       -12.98381         0.44539
   H       -3.05744       -14.64560         0.13618
   H       -2.45274       -14.19147         1.72079
   H       -7.19530       -13.93337        -3.75488
   H       -6.19756       -15.17593        -2.93082
   H       -6.77384       -11.37984        -1.58134
   H       -9.26099       -14.22342        -2.58102
   H      -11.56684       -13.34764        -3.30779
   H      -13.45094       -12.01256        -3.94617
   H      -15.07205       -10.08787        -4.48214
   H      -15.23131        -7.49775        -4.34457
   H      -15.22116        -4.84355        -3.15341
   H      -11.22835        -3.99473        -3.80877
   H       -9.02437        -7.27995        -6.09007
   H       -6.87156        -7.09689        -4.37008
   H      -10.25025        -5.86427        -2.32973
*
