# ORCA input file
# SCF done       -147.953349948533          0.000511782125
! CAM-B3LYP def2-SVP def2/J RIJCOSX Grid4 TightSCF
%maxcore 5000
%tddft
    Mode sTDDFT
    Ethresh 5.0
    maxcore 5000
end

%pal
  nprocs 6
  end
* xyz 0 1
   C       -0.77726        -0.01590         1.14385
   N       -0.83683         0.70916         2.21980
   C        0.26833         0.41985         2.93904
   C        1.03176        -0.52363         2.27837
   N        0.35397        -0.78283         1.09424
   C        0.56242        -1.91432         0.25544
   O        0.93320        -2.95798         0.71122
   N        0.20925        -1.71450        -1.05448
   C        0.05618        -0.53676        -1.76937
   C       -0.21338        -0.90786        -3.04417
   N       -0.24047        -2.27523        -3.14767
   C        0.02908        -2.73159        -1.97776
   C        2.31582        -1.06458         2.57202
   C        3.28173        -1.51735         1.69567
   C        4.41892        -1.94783         2.45105
   C        4.12174        -1.72814         3.86874
   O        4.74771        -1.91603         4.87392
   N        2.82477        -1.17281         3.83709
   C        5.36397        -2.35071         1.54944
   O        4.89331        -2.19000         0.27285
   C        3.59399        -1.66048         0.30410
   O        2.98758        -1.40619        -0.70124
   C        6.66402        -2.90854         1.74561
   C        7.75360        -3.12269         0.91130
   C        8.09422        -2.62469        -0.45369
   O        9.22062        -2.29858        -0.70928
   O        7.11868        -2.53368        -1.34819
   C        8.69908        -3.74538         1.78675
   N        8.19759        -3.86660         2.99391
   O        6.96383        -3.34912         2.98204
   C       10.02040        -4.23249         1.42742
   O       10.06571        -4.70392         0.14408
   C       11.28591        -4.87185        -0.43173
   C       11.42880        -5.04998        -1.77471
   F       10.45188        -5.10677        -2.67279
   S       13.07214        -5.25453        -2.26863
   C       11.03375        -4.19519         2.30008
   S       12.67881        -4.68644         1.97344
   C       12.54143        -4.90366         0.23298
   C       13.60374        -5.09045        -0.61226
   C       14.97862        -5.23612        -0.23579
   C       15.53439        -5.76759         0.90380
   N       16.88964        -5.76566         0.81462
   C       17.18208        -5.27585        -0.34353
   N       16.05558        -4.93564        -1.06287
   C       16.02501        -4.14166        -2.21889
   O       15.25778        -3.23471        -2.37105
   N       16.99264        -4.47868        -3.15294
   C       17.70536        -5.65566        -3.31292
   C       18.48037        -5.47482        -4.41117
   N       18.28027        -4.22501        -4.93456
   C       17.39373        -3.66062        -4.19137
   H       -1.53878        -0.04477         0.39000
   H        0.47158         0.91851         3.86554
   H        0.19811         0.42689        -1.32818
   H       -0.39191        -0.29294        -3.90276
   H        0.09385        -3.76324        -1.69758
   H        2.32041        -0.93615         4.67812
   H        6.22703        -2.70660        -1.00374
   H       10.87476        -3.83329         3.29938
   H       15.03883        -6.15900         1.76787
   H       18.17568        -5.10416        -0.70590
   H       17.57019        -6.50139        -2.67198
   H       19.17190        -6.15373        -4.86727
   H       16.99861        -2.67288        -4.31441
*
