# ORCA input file
# SCF done       -130.438672363256          0.000879613465
! CAM-B3LYP def2-SVP def2/J RIJCOSX Grid4 TightSCF
%maxcore 5000
%tddft
    Mode sTDDFT
    Ethresh 5.0
    maxcore 5000
end

%pal
  nprocs 6
  end
* xyz 0 1
   C       -5.20731        -1.28525        -6.90110
   N       -5.46581        -1.60475        -5.66264
   N       -5.02006        -2.69729        -5.09887
   C       -4.26451        -3.58109        -5.73997
   C       -3.91898        -3.32916        -7.10283
   C       -4.41255        -2.12859        -7.70648
   N       -4.02233        -2.00827        -8.97420
   S       -3.12198        -3.28651        -9.35748
   N       -3.18484        -4.05245        -7.93778
   C       -3.81591        -4.75137        -5.06891
   C       -4.04818        -5.15101        -3.74428
   C       -4.78744        -4.47052        -2.76397
   C       -4.89695        -5.03196        -1.51659
   C       -4.29042        -6.25164        -1.20168
   C       -3.54432        -6.96882        -2.12343
   C       -3.42277        -6.40590        -3.43718
   C       -2.74257        -6.91079        -4.52590
   S       -2.84243        -5.91417        -5.90121
   C       -2.90806        -8.21623        -1.82397
   C       -2.79251        -8.79478        -0.60324
   C       -2.13687       -10.02285        -0.37360
   S       -1.43617       -10.99497        -1.65469
   C       -0.84451       -12.23902        -0.57632
   C       -1.17332       -11.90101         0.73668
   C       -1.89378       -10.67339         0.82735
   N       -2.09598       -10.44701         2.14941
   N       -1.53867       -11.41555         2.89826
   C       -0.98647       -12.28419         2.09289
   C       -0.11501       -13.32743        -1.10110
   C        0.07783       -14.61693        -0.58595
   C       -0.54159       -15.20018         0.53281
   C       -0.21977       -16.48542         0.87898
   C        0.70811       -17.23232         0.14182
   C        1.30737       -16.73925        -1.00107
   C        0.96558       -15.40386        -1.39723
   C        1.39400       -14.71492        -2.50941
   S        0.74583       -13.14066        -2.59883
   C        2.21509       -17.50983        -1.80517
   C        2.88152       -18.61935        -1.41461
   C        3.75407       -19.36091        -2.25035
   S        3.95612       -18.97964        -3.93351
   C        5.06198       -20.25536        -4.17790
   C        5.29959       -20.96843        -3.02390
   C        4.55043       -20.45979        -1.91082
   C        4.69334       -21.07588        -0.65326
   C        5.53513       -22.14344        -0.51338
   S        5.75547       -22.95176         1.05515
   C        6.27954       -22.65802        -1.61900
   O        7.11147       -23.71828        -1.47693
   C        6.15798       -22.07606        -2.84943
   H       -5.62442        -0.36168        -7.27061
   H       -5.24856        -3.53072        -3.01673
   H       -5.46661        -4.52405        -0.75226
   H       -4.42322        -6.64484        -0.20551
   H       -2.18191        -7.82201        -4.59540
   H       -2.45943        -8.74160        -2.65613
   H       -3.19452        -8.31569         0.27934
   H       -2.56277        -9.67651         2.59571
   H       -0.46052       -13.12649         2.49326
   H       -1.28246       -14.64650         1.08473
   H       -0.69720       -16.94467         1.73197
   H        0.91858       -18.24245         0.45795
   H        2.05698       -15.03872        -3.28600
   H        2.38759       -17.15311        -2.81149
   H        2.78360       -18.98253        -0.40120
   H        5.48264       -20.41595        -5.14993
   H        4.14177       -20.69895         0.19541
   H        4.93678       -22.15546         1.73300
   H        7.11079       -24.03206        -0.56360
   H        6.72235       -22.46845        -3.67898
*
