# ORCA input file
# SCF done       -126.036917592548          0.000387791751
! CAM-B3LYP def2-SVP def2/J RIJCOSX Grid4 TightSCF
%maxcore 5000
%tddft
    Mode sTDDFT
    Ethresh 5.0
    maxcore 5000
end

%pal
  nprocs 6
  end
* xyz 0 1
   C       -5.86761        -7.86464        -6.48496
   C       -6.55718        -7.84068        -7.76662
   C       -7.75953        -7.26055        -7.63462
   C       -7.94905        -6.89277        -6.20958
   O       -8.94460        -6.49579        -5.66754
   C       -6.63659        -7.26790        -5.54048
   C       -6.34748        -7.09455        -4.16432
   S       -5.08815        -8.05708        -3.44034
   C       -5.33686        -7.33148        -1.87465
   C       -6.35142        -6.37859        -1.93685
   C       -6.92031        -6.23926        -3.22970
   C       -7.87197        -5.23372        -3.49232
   N       -8.57969        -4.34273        -3.62768
   C       -6.75147        -5.63011        -0.81707
   N       -7.05485        -5.03516         0.11499
   C       -4.55471        -7.70318        -0.75567
   C       -3.56898        -8.63097        -0.89695
   C       -2.68490        -9.17517         0.05199
   C       -2.74826        -9.08470         1.51617
   C       -1.88457        -9.94413         2.07213
   C       -1.17776       -10.68390         0.99655
   O       -0.37414       -11.57846         1.08929
   C       -1.69209       -10.08767        -0.27714
   C       -1.24918       -10.46430        -1.55456
   S       -0.72859       -12.09358        -1.88220
   C       -0.73033       -11.82476        -3.62140
   C       -0.96622       -10.47866        -3.87790
   C       -1.23855        -9.70067        -2.72921
   C       -1.35478        -8.31837        -3.03508
   C       -1.18774        -8.06114        -4.35590
   C       -1.25010        -6.74612        -5.04126
   S       -0.89821        -9.51060        -5.30062
   C       -0.51159       -12.91251        -4.48399
   C       -1.01269       -13.05392        -5.75324
   C       -0.68551       -14.11680        -6.68316
   C        0.38690       -14.96455        -6.60368
   C        1.36557       -14.93167        -5.58742
   N        2.20904       -14.94752        -4.80868
   C        0.67704       -15.96194        -7.55819
   N        0.96263       -16.79168        -8.29822
   C       -1.65055       -14.05976        -7.77961
   C       -2.50085       -12.95902        -7.57147
   C       -2.14561       -12.28565        -6.31347
   O       -2.73196       -11.34553        -5.80762
   C       -3.51342       -12.65803        -8.46039
   C       -3.67613       -13.46881        -9.57336
   C       -2.85145       -14.56842        -9.79285
   C       -1.82957       -14.86568        -8.88849
   C       -3.05412       -15.45289       -10.98111
   H       -4.88923        -8.28863        -6.33936
   H       -6.12645        -8.23793        -8.66848
   H       -8.51047        -7.09623        -8.38242
   H       -4.76034        -7.20700         0.18218
   H       -3.44978        -9.04522        -1.89158
   H       -3.42571        -8.42737         2.03096
   H       -1.70736       -10.12258         3.11545
   H       -1.52801        -7.55510        -2.29816
   H       -0.34257        -6.57152        -5.61743
   H       -1.36716        -5.94720        -4.31328
   H       -2.09148        -6.71653        -5.73369
   H        0.05183       -13.73378        -4.05848
   H       -4.15604       -11.80933        -8.28237
   H       -4.46018       -13.24822       -10.28299
   H       -1.20291       -15.72470        -9.06751
   H       -3.77265       -15.02356       -11.67415
   H       -3.42282       -16.42681       -10.65968
   H       -2.11176       -15.61456       -11.50092
*
