# ORCA input file
# SCF done       -174.385653501709          0.000182564927
! CAM-B3LYP def2-SVP def2/J RIJCOSX Grid4 TightSCF
%maxcore 5000
%tddft
    Mode sTDDFT
    Ethresh 5.0
    maxcore 5000
end

%pal
  nprocs 6
  end
* xyz 0 1
   C       -6.31819         4.75890        -5.28506
   C       -6.00819         5.11767        -3.97587
   O       -6.56534         6.28977        -3.54064
   C       -5.79313         7.19770        -2.77804
   C       -5.19123         4.27623        -3.19597
   C       -4.66204         3.13083        -3.80083
   C       -4.95822         2.79756        -5.10499
   C       -5.80754         3.60587        -5.84604
   C       -4.95700         4.54228        -1.79131
   C       -3.89868         4.11699        -1.07454
   C       -3.73838         4.43972         0.30447
   O       -4.63823         5.22778         0.92145
   C       -4.23178         5.42141         2.20364
   C       -3.05443         4.74511         2.42093
   C       -2.72288         4.10195         1.20078
   C       -1.56433         3.25894         0.91506
   O       -1.36552         2.76215        -0.17495
   C       -0.62054         3.04434         2.07475
   C       -5.04720         6.28140         2.99678
   S       -6.42246         7.01341         2.22664
   C       -6.81930         7.89721         3.67271
   C       -5.91522         7.62157         4.68274
   C       -4.92624         6.69324         4.30940
   C       -3.86028         6.21264         5.24591
   C       -4.18058         6.56145         6.70347
   C       -5.16138         5.54590         7.27967
   F       -6.24305         5.31590         6.52770
   F       -4.56504         4.34854         7.44154
   F       -5.61071         5.90507         8.49349
   C       -4.69350         7.99778         6.82607
   C       -5.99657         8.20738         6.05833
   C       -7.93749         8.77256         3.71669
   C       -8.89684         8.82464         2.76603
   C       -9.99843         9.71910         2.77179
   S      -10.06922        11.06107         3.87581
   C      -11.60629        11.59181         3.23718
   C      -12.03001        10.73296         2.23203
   C      -11.11948         9.69647         1.96274
   C      -11.37582         8.64599         0.93007
   C      -12.44497         9.10410        -0.05606
   C      -13.67749         9.59439         0.71246
   O      -14.16174         8.64578         1.64377
   C      -14.83867         7.55533         1.07809
   C      -13.32555        10.86162         1.49684
   C      -12.21200        12.79114         3.71352
   S      -13.54157        13.51097         2.84390
   C      -13.60907        14.86247         3.92893
   C      -12.64611        14.75105         4.90848
   C      -11.86658        13.58266         4.79906
   C      -10.77675        13.25253         5.77241
   C      -10.83418        14.11928         7.03415
   C      -11.86834        13.56477         8.00743
   F      -13.06175        13.29107         7.46876
   F      -11.43856        12.41323         8.55637
   F      -12.10061        14.40143         9.03471
   C      -11.09744        15.58335         6.68152
   C      -12.44998        15.76104         5.99809
   C      -14.58112        15.90530         3.76193
   C      -15.49493        15.94396         2.79461
   H       -6.96583         5.41319        -5.84809
   H       -5.86650         8.17306        -3.26745
   H       -4.74415         6.90154        -2.72811
   H       -6.19482         7.28499        -1.76488
   H       -4.03834         2.47790        -3.21028
   H       -4.54234         1.90205        -5.54096
   H       -6.05980         3.34530        -6.86284
   H       -5.71650         5.11726        -1.27966
   H       -3.09464         3.54149        -1.50556
   H       -2.48884         4.71707         3.32713
   H       -1.15226         2.58596         2.90561
   H       -0.21850         3.99959         2.40561
   H        0.19478         2.39670         1.76399
   H       -2.90616         6.67520         4.97604
   H       -3.74499         5.13057         5.14631
   H       -3.27525         6.44823         7.31093
   H       -3.92194         8.65610         6.42194
   H       -4.84037         8.25152         7.87712
   H       -6.20848         9.27700         5.99703
   H       -6.82960         7.74548         6.59639
   H       -8.01545         9.41904         4.58060
   H       -8.84659         8.13208         1.93590
   H      -11.71855         7.73924         1.43791
   H      -10.45472         8.40175         0.39670
   H      -12.70882         8.28417        -0.72592
   H      -12.07057         9.92927        -0.66418
   H      -14.48248         9.83513        -0.00417
   H      -15.25805         6.99215         1.90994
   H      -14.17118         6.90146         0.50510
   H      -15.65108         7.89069         0.42049
   H      -14.13309        11.05612         2.20601
   H      -13.27613        11.70687         0.80428
   H       -9.80551        13.40295         5.29115
   H      -10.83528        12.19731         6.05337
   H       -9.88003        14.04024         7.56739
   H      -10.30189        15.90708         6.00760
   H      -11.05378        16.19991         7.58091
   H      -12.51108        16.77010         5.58500
   H      -13.25671        15.66119         6.73043
   H      -14.54150        16.69602         4.49904
   H      -15.56014        15.16510         2.05303
   H      -16.20334        16.74930         2.71873
*
