# ORCA input file
# SCF done       -173.335768095775          0.000272488460
! CAM-B3LYP def2-SVP def2/J RIJCOSX Grid4 TightSCF
%maxcore 5000
%tddft
    Mode sTDDFT
    Ethresh 5.0
    maxcore 5000
end

%pal
  nprocs 6
  end
* xyz 0 1
   C       -0.08471         9.51534        -9.44929
   S        0.33193        10.93151        -8.53761
   C       -1.10927        10.78530        -7.62809
   C       -1.86363         9.68848        -8.02382
   C       -1.27111         8.96204        -9.07116
   C       -3.07074         9.65121        -7.18948
   O       -3.98114         8.85673        -7.22496
   C       -2.92509        10.85171        -6.26267
   C       -1.75013        11.49064        -6.56404
   C       -3.84873        11.23143        -5.26482
   C       -4.99817        10.55664        -4.97716
   C       -5.92549        10.91379        -3.98241
   S       -7.36707         9.94505        -3.74600
   C       -7.99102        10.93299        -2.45279
   C       -7.09668        11.97055        -2.19501
   C       -5.95630        11.95059        -3.05336
   N       -5.16678        12.97704        -2.65182
   N       -5.69745        13.61937        -1.59882
   C       -6.83497        13.04774        -1.30373
   C       -9.21300        10.56851        -1.82356
   S       -9.58611         8.88140        -1.61812
   C      -11.08349         9.24871        -0.80909
   C      -11.28820        10.61932        -0.75823
   C      -10.23637        11.35842        -1.32888
   C      -10.29983        12.84522        -1.50667
   C      -11.29135        13.48662        -0.53447
   C      -10.69835        13.55247         0.86759
   F      -10.23287        12.39239         1.34481
   F       -9.66029        14.40841         0.90814
   F      -11.58890        14.00019         1.76961
   C      -12.62603        12.74103        -0.57202
   C      -12.48916        11.27779        -0.15150
   C      -11.83868         8.13920        -0.33802
   C      -12.89874         8.14275         0.50088
   C      -13.56714         6.96110         0.92835
   S      -13.05478         5.37825         0.40818
   C      -14.29145         4.61651         1.36343
   C      -15.05329         5.54456         2.03539
   C      -14.64279         6.87239         1.79095
   C      -15.26879         8.04540         2.48167
   C      -16.55033         7.65098         3.20917
   C      -16.36318         6.34971         3.98905
   O      -17.51745         6.17571         4.78281
   C      -17.45936         5.10755         5.69484
   C      -16.15438         5.20517         2.98829
   C      -14.34094         3.17832         1.45718
   S      -12.94476         2.31554         2.02704
   C      -13.79030         0.79567         1.96465
   C      -15.07125         0.96564         1.49156
   C      -15.37463         2.31609         1.19240
   C      -16.65605         2.72876         0.53379
   C      -17.75974         1.69437         0.76081
   C      -18.30328         1.80291         2.17999
   F      -17.37650         1.81857         3.14719
   F      -19.00690         2.94055         2.33432
   F      -19.14370         0.79931         2.48189
   C      -17.24543         0.29164         0.43031
   C      -16.08066        -0.12783         1.32615
   C      -13.05753        -0.37260         2.38115
   C      -13.54623        -1.56065         2.72786
   H        0.58826         9.18405       -10.21481
   H       -1.69303         8.08182        -9.52060
   H       -1.36223        12.37203        -6.08664
   H       -3.59336        12.12404        -4.70598
   H       -5.23343         9.67137        -5.54990
   H       -4.27261        13.26785        -3.00817
   H       -7.39879        13.39658        -0.46227
   H      -10.63552        13.05860        -2.52693
   H       -9.31423        13.29316        -1.39418
   H      -11.45288        14.53336        -0.81686
   H      -12.99741        12.79197        -1.59725
   H      -13.35091        13.23904         0.07432
   H      -13.39170        10.74020        -0.45074
   H      -12.41063        11.21409         0.93832
   H      -11.47801         7.17626        -0.68137
   H      -13.27794         9.06018         0.91928
   H      -15.48615         8.83711         1.76052
   H      -14.54845         8.44751         3.20206
   H      -17.36363         7.50541         2.49652
   H      -16.85043         8.43893         3.89995
   H      -15.47486         6.42822         4.64095
   H      -18.32584         5.21749         6.34440
   H      -16.54405         5.15094         6.29804
   H      -17.50949         4.13461         5.19502
   H      -17.10294         5.07246         2.45722
   H      -15.92295         4.26640         3.49623
   H      -16.48165         2.81197        -0.54373
   H      -16.97266         3.71108         0.88385
   H      -18.61639         1.92569         0.11709
   H      -16.91919         0.30275        -0.61136
   H      -18.05517        -0.43430         0.52275
   H      -15.60046        -1.01139         0.90011
   H      -16.46144        -0.40426         2.31440
   H      -11.98639        -0.21646         2.42845
   H      -14.59637        -1.78266         2.75681
   H      -12.88444        -2.35612         3.02397
*
