# ORCA input file
# SCF done       -192.085211725311          0.000507061804
! CAM-B3LYP def2-SVP def2/J RIJCOSX Grid4 TightSCF
%maxcore 5000
%tddft
    Mode sTDDFT
    Ethresh 5.0
    maxcore 5000
end

%pal
  nprocs 6
  end
* xyz 0 1
   N        2.85371         1.92895        -1.23552
   C        2.83128         1.46119        -2.60834
   C        2.74399        -0.11083        -2.61766
   N        1.55323        -0.58175        -3.29944
   C        1.45477        -0.03310        -4.64281
   C        1.61506         1.52280        -4.66190
   C        0.42294         2.14854        -5.38159
   S       -0.23909         0.87924        -6.49638
   C        0.11374        -0.40200        -5.26363
   N        1.72735         2.05960        -3.31731
   N        2.69546        -0.55044        -1.23186
   S        3.50929         0.71302        -0.27649
   N        3.14584        -1.79940        -0.90233
   C        2.20598        -2.89358        -1.03138
   C        2.89155        -4.05271        -1.85698
   N        3.34565        -5.11495        -0.99283
   C        2.24471        -5.73231        -0.27683
   C        1.25757        -4.66936         0.30833
   C        0.87600        -5.06305         1.73607
   S        1.30749        -6.81703         1.95105
   C        2.74547        -6.60001         0.86796
   N        1.83197        -3.33663         0.29820
   N        4.02877        -3.50488        -2.55928
   S        4.69817        -2.34146        -1.46963
   C        3.92381        -3.18979        -3.90179
   S        2.43367        -3.41589        -4.78226
   C        3.19531        -2.83401        -6.25213
   C        4.49094        -2.46720        -6.03566
   C        4.91545        -2.68913        -4.69990
   C        6.33283        -2.43919        -4.29778
   C        6.92796        -1.29327        -5.14608
   C        6.19654        -0.04649        -4.75554
   O        5.06027         0.25053        -5.00278
   C        7.04877         0.89715        -3.85483
   F        7.49243         0.25608        -2.76290
   F        8.13339         1.33587        -4.51486
   F        6.36583         1.96447        -3.44869
   C        6.78830        -1.65057        -6.63340
   C        5.33548        -1.80252        -7.07440
   N        2.52046        -2.70387        -7.44341
   C        1.33590        -3.50598        -7.64548
   C        0.59488        -2.93565        -8.89736
   N        0.40269        -3.93597        -9.92111
   C       -0.18606        -5.15126        -9.39138
   C        0.63769        -5.73106        -8.19024
   C        1.12145        -7.12996        -8.55247
   S       -0.14903        -7.81955        -9.64941
   C       -0.28912        -6.21253       -10.48308
   N        1.75631        -4.87525        -7.83700
   N        1.45237        -1.89802        -9.43633
   S        2.19586        -1.10207        -8.03748
   N        0.87768        -1.12220       -10.40332
   C       -0.07928        -0.10365       -10.00067
   C        0.62915         1.31472       -10.08998
   N       -0.05874         2.18414       -11.01808
   C       -1.47156         2.29729       -10.71689
   C       -2.16644         0.89593       -10.61997
   C       -3.32174         0.84252       -11.61426
   S       -3.90194         2.55199       -11.80348
   C       -2.18214         3.13116       -11.77817
   N       -1.23319        -0.18851       -10.86328
   N        1.98659         1.12944       -10.55084
   S        2.02069        -0.33464       -11.43030
   H        1.92985         2.21054        -0.91862
   H        3.75986         1.77913        -3.09758
   H        3.61374        -0.52858        -3.15042
   H        0.73504        -0.32687        -2.74819
   H        2.26956        -0.47510        -5.22697
   H        2.54360         1.77744        -5.18163
   H        0.69638         3.02026        -5.96868
   H       -0.36233         2.42581        -4.67567
   H        0.13039        -1.37267        -5.75101
   H       -0.68608        -0.39144        -4.51989
   H        0.86025         1.89438        -2.80641
   H        1.30598        -2.54249        -1.55197
   H        2.18416        -4.48453        -2.57235
   H        4.04743        -4.74827        -0.35307
   H        1.70774        -6.36228        -0.99692
   H        0.36160        -4.62448        -0.32069
   H       -0.18454        -4.94393         1.93754
   H        1.44365        -4.47721         2.46057
   H        3.09631        -7.57303         0.53732
   H        3.53593        -6.10089         1.43282
   H        2.64637        -3.28589         0.90475
   H        6.92952        -3.33606        -4.48684
   H        6.41034        -2.21439        -3.23280
   H        7.98780        -1.18399        -4.89942
   H        7.31889        -2.59266        -6.78375
   H        7.27753        -0.88817        -7.24190
   H        5.28447        -2.36479        -8.00908
   H        4.89859        -0.81834        -7.27541
   H        0.66718        -3.49044        -6.76486
   H       -0.40163        -2.55492        -8.61421
   H        1.29009        -4.12167       -10.38108
   H       -1.18990        -4.88353        -9.04266
   H       -0.00528        -5.78631        -7.30412
   H        1.23399        -7.77443        -7.68582
   H        2.06607        -7.09243        -9.09892
   H       -1.23211        -6.17317       -11.01973
   H        0.53260        -6.12135       -11.19583
   H        2.47579        -4.90185        -8.55621
   H       -0.40749        -0.28903        -8.97104
   H        0.62317         1.79718        -9.10640
   H        0.09458         1.84505       -11.96502
   H       -1.54463         2.79817        -9.74470
   H       -2.54717         0.75633        -9.60184
   H       -4.14619         0.22465       -11.27122
   H       -2.98476         0.48339       -12.58863
   H       -2.16891         4.19421       -11.55733
   H       -1.74770         2.96381       -12.76567
   H       -0.92312        -0.19591       -11.83266
   H        2.66133         1.13008        -9.79390
*
