# ORCA input file
# SCF done       -106.983686153568          0.000845273810
! CAM-B3LYP def2-SVP def2/J RIJCOSX Grid4 TightSCF
%maxcore 5000
%tddft
    Mode sTDDFT
    Ethresh 5.0
    maxcore 5000
end

%pal
  nprocs 6
  end
* xyz 0 1
   C        5.09727         2.67278        -2.26752
   C        4.78297         1.32769        -2.29156
   C        3.66716         0.86969        -1.58196
   C        2.93340         1.84027        -0.88460
   N        3.22968         3.12266        -0.85980
   C        4.28973         3.53333        -1.53663
   C        3.23794        -0.50902        -1.53453
   C        3.87956        -1.55697        -2.08433
   C        3.42916        -2.91066        -2.02906
   S        4.39318        -4.15406        -2.77588
   C        3.24486        -5.38030        -2.31675
   C        2.18906        -4.83082        -1.62050
   C        2.29376        -3.44931        -1.46056
   C        3.44140        -6.71159        -2.64815
   C        3.63541        -7.86982        -2.95430
   C        3.81384        -9.21157        -3.28531
   C        4.92976        -9.67755        -3.87680
   C        5.18290       -11.05500        -4.23789
   C        4.21563       -12.05939        -4.20168
   C        4.54969       -13.36743        -4.55075
   C        5.88255       -13.60308        -4.91764
   N        6.80729       -12.66530        -4.96788
   C        6.47106       -11.43267        -4.64451
   C        3.60655       -14.46485        -4.54957
   C        2.26706       -14.34160        -4.53854
   C        1.34429       -15.43187        -4.54641
   S       -0.35671       -15.09972        -4.71829
   C       -0.73951       -16.79697        -4.63930
   C        0.40220       -17.55296        -4.48104
   C        1.56784       -16.78748        -4.43298
   C       -2.04799       -17.24371        -4.74248
   C       -3.19904       -17.61204        -4.85315
   C       -4.50821       -18.07153        -4.98952
   C       -5.50422       -17.29582        -5.45549
   C       -6.87731       -17.70996        -5.64395
   C       -7.73859       -16.92069        -6.40855
   C       -9.05696       -17.31501        -6.61685
   C       -9.45789       -18.51048        -6.01018
   N       -8.66566       -19.26005        -5.26766
   C       -7.41776       -18.87723        -5.08794
   C      -10.01211       -16.55959        -7.41744
   C       -9.72560       -15.54873        -8.22798
   H        5.95201         3.05003        -2.80796
   H        5.39402         0.64184        -2.85920
   H        2.05735         1.55483        -0.31458
   H        4.49410         4.59463        -1.49000
   H        2.31621        -0.68000        -0.99468
   H        4.80992        -1.40764        -2.61515
   H        1.37420        -5.42495        -1.24622
   H        1.55781        -2.85953        -0.94486
   H        2.99360        -9.86831        -3.02412
   H        5.73162        -8.98248        -4.09172
   H        3.20653       -11.82862        -3.89590
   H        6.20817       -14.59735        -5.19617
   H        7.26697       -10.70060        -4.69690
   H        4.04854       -15.45089        -4.59556
   H        1.81351       -13.35939        -4.54917
   H        0.37701       -18.62578        -4.40725
   H        2.54732       -17.21279        -4.30930
   H       -4.67698       -19.10475        -4.71515
   H       -5.27420       -16.27861        -5.74900
   H       -7.36873       -16.00033        -6.83749
   H      -10.46942       -18.87755        -6.13050
   H       -6.82662       -19.52411        -4.45406
   H      -11.03709       -16.89886        -7.33208
   H       -8.72299       -15.18247        -8.36995
   H      -10.49307       -15.05031        -8.79451
*
