# ORCA input file
# SCF done       -179.312514589186          0.000183918427
! CAM-B3LYP def2-SVP def2/J RIJCOSX Grid4 TightSCF
%maxcore 5000
%tddft
    Mode sTDDFT
    Ethresh 5.0
    maxcore 5000
end

%pal
  nprocs 6
  end
* xyz 0 1
   C        1.51008        24.12263         3.12217
   S        2.16306        23.72232         4.65788
   C        3.64337        23.23465         3.93452
   C        3.63352        23.37729         2.58784
   C        2.39404        23.88567         2.10580
   N        2.11183        24.18379         0.77781
   C        2.52448        23.51830        -0.32890
   C        3.20870        22.35017        -0.37228
   C        3.57742        21.76834        -1.61180
   O        4.23320        20.57609        -1.62181
   C        3.38736        22.17024        -2.92097
   C        2.82808        23.21042        -3.76806
   O        2.24586        24.23616        -3.49190
   N        3.09947        22.77201        -5.06050
   C        3.76927        21.54868        -5.14544
   O        4.08177        21.00697        -6.17561
   C        3.95397        21.16291        -3.74943
   C        4.46606        20.19128        -2.91597
   C        5.11148        18.96439        -3.20737
   C        5.58637        18.12486        -2.25562
   C        6.18672        16.86761        -2.51040
   S        6.29063        16.21034        -4.11891
   C        7.02569        14.74909        -3.52999
   C        7.17753        14.78910        -2.15163
   C        6.71748        15.98349        -1.58145
   C        6.77719        16.26734        -0.11014
   C        7.71482        15.29891         0.61800
   C        9.16428        15.74065         0.44952
   F        9.53575        15.99528        -0.80953
   F        9.40204        16.87143         1.14077
   F       10.03015        14.82682         0.92213
   C        7.48937        13.86095         0.14557
   C        7.79371        13.68980        -1.34145
   C        7.37276        13.67867        -4.39944
   C        7.21320        13.71617        -5.74127
   C        7.47517        12.66653        -6.66857
   S        7.60749        13.10195        -8.35256
   C        7.88518        11.45066        -8.80884
   C        7.84263        10.61761        -7.71696
   C        7.61392        11.30139        -6.50216
   C        7.49452        10.56812        -5.20231
   C        7.20047         9.08614        -5.42250
   C        8.18663         8.49906        -6.43682
   O        8.05788         7.09950        -6.60263
   C        8.59439         6.32379        -5.56318
   C        7.91729         9.12638        -7.80389
   C        8.09765        11.10964       -10.19656
   S        6.83730        11.37606       -11.36075
   C        7.84417        10.79608       -12.65308
   C        9.08275        10.42264       -12.18534
   C        9.22688        10.60640       -10.79076
   C       10.50373        10.32049       -10.05995
   C       11.69564        10.27535       -11.02005
   C       12.12219        11.68309       -11.41852
   F       11.14124        12.47135       -11.86855
   F       12.66681        12.33013       -10.37102
   F       13.06532        11.66876       -12.37785
   C       11.36955         9.39638       -12.23059
   C       10.20782         9.94895       -13.05510
   C        7.37021        10.75785       -14.00964
   C        6.16353        11.15554       -14.40340
   H        0.51638        24.51763         3.05211
   H        4.44168        22.88216         4.55618
   H        4.47863        23.17128         1.95878
   H        1.41776        24.90242         0.63587
   H        2.25062        23.99838        -1.25944
   H        3.46905        21.79727         0.51550
   H        2.82664        23.29585        -5.87935
   H        5.19932        18.72503        -4.25712
   H        5.49232        18.41538        -1.21814
   H        5.77458        16.16706         0.31696
   H        7.10623        17.29522         0.06108
   H        7.53086        15.35691         1.69706
   H        6.44204        13.61606         0.33287
   H        8.10747        13.17658         0.72920
   H        7.41291        12.72094        -1.67216
   H        8.87546        13.68642        -1.50610
   H        7.79944        12.81156        -3.92205
   H        6.86312        14.64055        -6.18489
   H        6.69880        11.01472        -4.60129
   H        8.43314        10.66822        -4.64566
   H        6.18745         8.95468        -5.80671
   H        7.27340         8.55843        -4.47024
   H        9.21598         8.73456        -6.11325
   H        8.54191         5.28934        -5.89745
   H        8.02556         6.42583        -4.63225
   H        9.64092         6.59050        -5.36786
   H        6.96234         8.73442        -8.16690
   H        8.67890         8.80848        -8.51480
   H       10.43913         9.34593        -9.56632
   H       10.66257        11.07043        -9.28077
   H       12.56623         9.86060       -10.49850
   H       11.10984         8.40575       -11.85185
   H       12.25169         9.29469       -12.86509
   H        9.85515         9.17202       -13.73724
   H       10.55300        10.78661       -13.66894
   H        8.07827        10.37611       -14.73304
   H        5.44414        11.54491       -13.70210
   H        5.86111        11.10764       -15.43421
*
