# ORCA input file
# SCF done       -176.239096720458          0.000704186855
! CAM-B3LYP def2-SVP def2/J RIJCOSX Grid4 TightSCF
%maxcore 5000
%tddft
    Mode sTDDFT
    Ethresh 5.0
    maxcore 5000
end

%pal
  nprocs 6
  end
* xyz 0 1
   C       -8.25519        -7.62768         9.18470
   S       -9.89983        -7.70227         8.71376
   C       -9.58252        -6.72850         7.18189
   O      -10.48105        -6.47230         6.42639
   C       -8.17714        -6.41894         7.16310
   C       -7.47892        -6.94073         8.30226
   C       -6.06150        -6.66644         8.34164
   O       -5.22259        -6.95567         9.13939
   S       -5.69787        -5.70486         6.82353
   C       -7.36192        -5.73252         6.27466
   C       -7.61627        -5.08119         5.03792
   C       -8.83074        -4.97591         4.44203
   C       -9.10034        -4.35829         3.19264
   S      -10.73021        -4.40481         2.60705
   C      -10.30953        -3.60369         1.12541
   C       -8.96280        -3.26735         1.12337
   C       -8.27261        -3.70111         2.27763
   C       -6.88869        -3.51499         2.46852
   N       -5.75993        -3.38203         2.61633
   C       -8.30438        -2.45867         0.04441
   F       -9.12608        -1.51631        -0.44993
   F       -7.22003        -1.80919         0.47493
   F       -7.91482        -3.21524        -0.99512
   C      -11.33989        -3.44238         0.15433
   C      -11.19245        -3.35131        -1.18870
   C      -12.29771        -3.24865        -2.06895
   S      -13.95059        -3.08908        -1.51316
   C      -14.62796        -3.07024        -3.22017
   O      -15.80124        -2.97624        -3.44004
   C      -13.49745        -3.18741        -4.10285
   C      -12.24298        -3.27683        -3.45162
   C      -11.11544        -3.41552        -4.34105
   O       -9.94558        -3.52624        -4.12922
   S      -11.80273        -3.41664        -6.05187
   C      -13.44913        -3.25428        -5.48741
   C      -14.57383        -3.22640        -6.33954
   C      -14.51976        -3.34193        -7.69130
   C      -15.66684        -3.35043        -8.51950
   S      -17.27957        -3.20075        -7.90712
   C      -17.97633        -3.37608        -9.49007
   C      -16.98181        -3.50074       -10.45344
   C      -15.68077        -3.49535        -9.90976
   C      -14.48114        -3.64288       -10.63471
   N      -13.47953        -3.77656       -11.17426
   C      -17.23483        -3.56884       -11.92853
   F      -18.19240        -2.70999       -12.31944
   F      -16.15474        -3.27644       -12.65458
   F      -17.63923        -4.79261       -12.32392
   C      -19.40019        -3.37401        -9.55181
   C      -20.17420        -3.89442       -10.53365
   C      -21.59631        -3.90006       -10.54102
   S      -22.34862        -4.69664       -11.90705
   C      -24.04534        -4.35927       -11.31170
   O      -25.01936        -4.71625       -11.90914
   C      -23.89583        -3.63689       -10.07469
   C      -22.54864        -3.39569        -9.66660
   C      -22.46047        -2.67348        -8.42075
   O      -21.52219        -2.30188        -7.76829
   S      -24.16690        -2.34345        -7.85855
   C      -24.87311        -3.14899        -9.23318
   C      -26.28663        -3.26598        -9.42358
   C      -27.19380        -2.77574        -8.57699
   H       -7.93056        -8.09677        10.09457
   H       -6.74220        -4.65399         4.56712
   H       -9.69780        -5.40310         4.92752
   H      -12.34750        -3.47841         0.55245
   H      -10.22631        -3.39600        -1.67083
   H      -15.53099        -3.11958        -5.84223
   H      -13.56227        -3.44853        -8.18657
   H      -19.87764        -2.95361        -8.67658
   H      -19.73472        -4.38471       -11.38959
   H      -26.58162        -3.79223       -10.32186
   H      -26.90001        -2.25180        -7.68145
   H      -28.24815        -2.88649        -8.75727
*
