# ORCA input file
# SCF done       -130.032354540711          0.000694253310
! CAM-B3LYP def2-SVP def2/J RIJCOSX Grid4 TightSCF
%maxcore 5000
%tddft
    Mode sTDDFT
    Ethresh 5.0
    maxcore 5000
end

%pal
  nprocs 6
  end
* xyz 0 1
   C       -0.03578         0.78522        -3.60736
   C        0.97784         1.70150        -3.49800
   C        0.98838         2.70111        -2.51482
   C       -0.01899         2.82792        -1.57097
   C       -1.09902         1.91003        -1.68888
   C       -1.10043         0.88676        -2.69946
   N       -2.19822         0.13006        -2.63874
   S       -3.12504         0.65570        -1.43566
   N       -2.18810         1.86405        -0.92804
   C       -0.05801         3.83252        -0.54892
   S       -1.59269         4.32168         0.07725
   C       -0.89432         5.53622         1.09856
   C        0.49800         5.55983         0.95875
   C        0.97833         4.56370         0.04882
   C        2.36789         4.39878        -0.10205
   C        3.25468         5.25249         0.51650
   C        4.68240         5.02707         0.34417
   C        5.67109         5.69616         0.92703
   C        2.74825         6.33191         1.28758
   C        1.41421         6.47752         1.51645
   C       -1.73675         6.33778         1.91053
   S       -3.29788         6.80740         1.31661
   C       -3.68764         7.68952         2.76064
   C       -2.62507         7.63715         3.66830
   C       -1.53450         6.83503         3.20556
   C       -0.45775         6.57412         4.07236
   C       -0.38487         7.18202         5.30587
   C        0.74119         6.87412         6.17481
   C        0.94408         7.32666         7.40737
   C       -1.40073         8.10285         5.68053
   C       -2.49378         8.31844         4.89900
   C       -4.94114         8.34226         2.87620
   S       -5.66879         9.06919         1.48361
   C       -7.02665         9.66590         2.38077
   C       -6.94766         9.26274         3.71316
   C       -5.77233         8.49284         3.99463
   C       -5.61439         7.89434         5.25682
   C       -6.54990         8.08684         6.24809
   C       -6.33924         7.45497         7.54184
   C       -7.09682         7.58207         8.62570
   C       -7.69539         8.87907         5.96572
   C       -7.90191         9.43509         4.74175
   C       -8.01996        10.43153         1.67326
   C       -8.30178        10.16946         0.34242
   C       -9.24307        10.89751        -0.39663
   C       -9.94183        11.94189         0.14872
   C       -9.67252        12.27558         1.48425
   C       -8.71460        11.52426         2.25774
   N       -8.56948        12.02415         3.48308
   S       -9.54570        13.29125         3.65044
   N      -10.20146        13.28124         2.18365
   H       -0.04318         0.01813        -4.36378
   H        1.80031         1.66698        -4.19746
   H        1.79243         3.41884        -2.52717
   H        2.74569         3.57376        -0.68585
   H        4.92906         4.21410        -0.32845
   H        5.50443         6.50751         1.61435
   H        6.70098         5.44888         0.73476
   H        3.43762         7.04682         1.70735
   H        1.04471         7.30110         2.10773
   H        0.30727         5.87644         3.76648
   H        1.46692         6.19709         5.74007
   H        0.26378         7.99513         7.90615
   H        1.81292         7.03545         7.97217
   H       -1.30624         8.63704         6.61227
   H       -3.25828         9.01749         5.20099
   H       -4.76188         7.25559         5.43354
   H       -5.45537         6.82970         7.59292
   H       -7.98369         8.19150         8.65395
   H       -6.84813         7.07343         9.54141
   H       -8.43619         9.01666         6.73714
   H       -8.79392        10.00393         4.54195
   H       -7.78150         9.35567        -0.14219
   H       -9.41600        10.61745        -1.42504
   H      -10.66618        12.51028        -0.41072
*
