# ORCA input file
# SCF done       -148.222219375199          0.000509330528
! CAM-B3LYP def2-SVP def2/J RIJCOSX Grid4 TightSCF
%maxcore 5000
%tddft
    Mode sTDDFT
    Ethresh 5.0
    maxcore 5000
end

%pal
  nprocs 6
  end
* xyz 0 1
   C       -0.55736         2.11006        -3.46067
   O       -1.60693         1.93216        -2.90184
   C       -0.02912         3.40127        -3.95667
   C        1.18834         3.20192        -4.63110
   C        1.84372         4.28490        -5.19735
   C        1.27452         5.54653        -5.07473
   C        0.06557         5.73518        -4.39746
   C       -0.59760         4.65270        -3.83475
  Br       -0.68041         7.46183        -4.24215
  Br        2.16509         7.02159        -5.84832
   C        1.53033         1.78438        -4.58894
   C        2.69755         1.23015        -5.03532
   C        3.73457         1.96348        -5.65516
   N        4.60422         2.50583        -6.16959
   C        3.04522        -0.13471        -4.92087
   N        3.40222        -1.22298        -4.85291
   C        0.44344         1.09052        -3.91091
   C        0.27336        -0.25113        -3.84202
   C       -0.71771        -0.92837        -3.07484
   O       -1.05146        -2.20609        -3.39567
   C       -1.92863        -2.54202        -2.42987
   N       -2.08651        -1.55149        -1.57642
   N       -1.33383        -0.55035        -1.98090
   C       -2.56687        -3.81537        -2.40896
   C       -3.45277        -4.14440        -1.44803
   C       -4.12143        -5.40194        -1.42320
   S       -5.27154        -5.82756        -0.16262
   C       -5.45461        -7.34645        -1.02630
   N       -4.70398        -7.40711        -2.09102
   N       -3.97930        -6.35054        -2.30563
   C       -6.34406        -8.37216        -0.58668
   C       -6.52984        -9.50428        -1.29148
   C       -7.43105       -10.56509        -0.92817
   C       -7.99010       -10.74245         0.34780
   N       -8.84349       -11.70162         0.62032
   C       -9.20478       -12.51075        -0.37382
   N       -8.68739       -12.47869        -1.60551
   C       -7.81006       -11.53805        -1.86711
   C      -10.17615       -13.53724        -0.05785
   C      -11.00969       -14.16257        -0.91127
   C      -11.67961       -15.43944        -0.50786
   O      -11.79568       -15.87757         0.60773
   C      -12.10247       -16.05775        -1.78228
   C      -11.85115       -15.17174        -2.84814
   C      -11.32079       -13.92147        -2.31392
   C      -11.34697       -12.71277        -2.94407
   C      -11.07182       -11.48026        -2.30997
   N      -10.92514       -10.44103        -1.84749
   C      -11.74335       -12.53966        -4.28891
   N      -12.04570       -12.35670        -5.37980
   C      -12.14221       -15.55635        -4.14694
   C      -12.69054       -16.81517        -4.36105
   C      -12.95184       -17.68319        -3.29594
   C      -12.65334       -17.30598        -1.99333
  Br      -13.70840       -19.38328        -3.61615
  Br      -13.07846       -17.34677        -6.13094
   H        2.77329         4.17807        -5.73256
   H       -1.53314         4.78176        -3.31282
   H        0.91827        -0.91566        -4.40246
   H       -2.32031        -4.50662        -3.20051
   H       -3.68106        -3.43702        -0.66437
   H       -6.88005        -8.17777         0.33040
   H       -5.99208        -9.62164        -2.22279
   H       -7.72126       -10.10674         1.18087
   H       -7.39786       -11.53794        -2.86873
   H      -10.18533       -13.86343         0.97550
   H      -11.94729       -14.91334        -4.99026
   H      -12.84776       -17.96973        -1.16512
*
