# ORCA input file
# SCF done       -215.409632111561          0.000550757635
! CAM-B3LYP def2-SVP def2/J RIJCOSX Grid4 TightSCF
%maxcore 5000
%tddft
    Mode sTDDFT
    Ethresh 5.0
    maxcore 5000
end

%pal
  nprocs 6
  end
* xyz 0 1
   C        2.88015        -3.20323         4.92236
   C        3.25866        -4.02534         5.94759
   C        4.01470        -3.60709         7.06611
   N        4.61453        -3.34083         8.00645
   C        2.99319        -5.41144         6.01988
   N        2.84299        -6.54384         6.13196
   C        3.26693        -1.80307         4.77371
   C        2.86587        -1.35917         3.50086
   C        3.10776        -0.07410         3.06690
   C        3.75106         0.81181         3.93787
   C        4.13989         0.38238         5.21704
   C        3.91289        -0.92834         5.63128
   C        4.81845         1.29292         6.18887
   O        5.47880         0.89997         7.11504
   O        4.58970         2.57571         5.91546
   C        5.20424         3.52708         6.77444
   C        4.01036         2.12150         3.46301
   N        4.19939         3.14564         2.98549
   C        2.18320        -2.45584         2.77650
   O        1.76726        -2.40142         1.64089
   C        2.10886        -3.57599         3.74439
   C        1.32992        -4.69681         3.67783
   C        0.54406        -5.22038         2.62782
   S       -0.54556        -6.52896         3.03824
   C       -1.08867        -6.68047         1.40582
   C       -0.42581        -5.75193         0.58326
   C        0.47839        -4.93966         1.27325
   C       -0.63073        -5.62315        -0.80183
   N       -0.77528        -5.50450        -1.93399
   C       -2.07706        -7.64622         1.10487
   C       -2.54092        -7.94772        -0.13852
   C       -3.54524        -8.92369        -0.34385
   N       -3.99192        -9.31333        -1.58341
   C       -3.48409        -8.86812        -2.85976
   C       -2.15607        -9.53548        -3.20679
   C       -5.00234       -10.29242        -1.49808
   O       -5.54257       -10.79513        -2.45894
   C       -5.17870       -10.48860        -0.07437
   C       -4.27413        -9.64299         0.60607
   C       -4.47156        -9.85030         2.02230
   O       -3.91918        -9.38218         2.99851
   N       -5.50651       -10.80361         2.10415
   C       -5.94171       -11.26522         3.40085
   C       -7.08912       -10.41825         3.94804
   C       -5.94068       -11.18927         0.85759
   C       -6.94194       -12.13102         0.49002
   C       -7.91824       -12.67557         1.24946
   C       -8.88121       -13.64446         0.79035
   C       -9.98516       -13.92959         1.59858
   C      -10.94118       -14.85431         1.22177
   N      -12.03593       -15.03232         2.15143
   O      -11.78729       -14.85068         3.32349
   O      -13.12738       -15.32545         1.71670
   C      -10.81441       -15.59704         0.02880
   C       -9.69488       -15.30279        -0.76858
   C       -8.76853       -14.35154        -0.41662
   C      -11.73888       -16.63684        -0.34931
   C      -11.42449       -17.67232        -1.16434
   C      -12.36684       -18.68847        -1.46790
   C      -12.08234       -19.80858        -2.19269
   C      -12.98914       -20.90268        -2.50418
   C      -14.34843       -20.91224        -2.36161
   C      -15.17946       -21.99229        -2.73730
   N      -15.91379       -22.82185        -3.03322
   C      -15.12356       -19.83630        -1.87327
   N      -15.82009       -19.00335        -1.50279
   C      -12.19070       -21.98629        -3.07473
   C      -10.86458       -21.54217        -3.22997
   C      -10.73918       -20.15706        -2.72458
   O       -9.73797       -19.47592        -2.74184
   C       -9.87942       -22.35245        -3.75114
   C      -10.22065       -23.65501        -4.12907
   C      -11.53831       -24.11184        -3.96501
   C      -12.52312       -23.28230        -3.43402
   C      -11.93652       -25.50988        -4.31352
   O      -12.87405       -26.07455        -3.81320
   O      -11.13597       -26.03992        -5.23518
   C      -11.40220       -27.38318        -5.61694
   C       -9.18570       -24.48479        -4.62739
   N       -8.28302       -25.08775        -4.99389
   H        2.80463         0.24094         2.07970
   H        4.24339        -1.21368         6.61785
   H        5.01508         4.49881         6.32679
   H        6.27604         3.33413         6.84660
   H        4.76651         3.46915         7.77303
   H        1.26145        -5.28375         4.58685
   H        1.06354        -4.17171         0.80060
   H       -2.47743        -8.18232         1.95655
   H       -2.14308        -7.44353        -1.00548
   H       -3.37948        -7.77993        -2.85497
   H       -4.24032        -9.14790        -3.59833
   H       -1.39444        -9.29709        -2.46773
   H       -1.81682        -9.18863        -4.17835
   H       -2.27927       -10.61517        -3.24497
   H       -5.07952       -11.16270         4.06712
   H       -6.21033       -12.32151         3.33575
   H       -6.74499        -9.40020         4.11144
   H       -7.42931       -10.82551         4.89612
   H       -7.92668       -10.38741         3.25418
   H       -6.89766       -12.36947        -0.56494
   H       -8.04981       -12.37060         2.27604
   H      -10.11661       -13.41411         2.53951
   H       -9.57286       -15.83047        -1.70082
   H       -7.93358       -14.16434        -1.07282
   H      -12.73185       -16.59672         0.07778
   H      -10.43241       -17.78033        -1.57552
   H      -13.36228       -18.56157        -1.06124
   H       -8.86742       -21.99137        -3.85695
   H      -13.51542       -23.68670        -3.30937
   H      -10.53820       -27.70747        -6.19068
   H      -12.30752       -27.42730        -6.22544
   H      -11.53879       -28.00707        -4.73188
*
