# ORCA input file
# SCF done       -223.915438651244          0.000506738829
! CAM-B3LYP def2-SVP def2/J RIJCOSX Grid4 TightSCF
%maxcore 5000
%tddft
    Mode sTDDFT
    Ethresh 5.0
    maxcore 5000
end

%pal
  nprocs 6
  end
* xyz 0 1
   C        9.63483        16.23049         1.02386
   C        9.57683        15.88148        -0.29535
   C       10.69602        15.86184        -1.15739
   N       11.56542        15.82884        -1.90507
   C        8.41292        15.44828        -0.96784
   N        7.51334        15.05930        -1.56510
   C       10.83648        16.57247         1.76870
   C       10.50685        16.68744         3.15114
   C       11.45034        16.97615         4.09655
   C       12.78973        17.17200         3.69592
   C       13.12619        17.07040         2.31389
   C       12.13038        16.76871         1.35846
   C       14.46683        17.27084         1.92518
   C       15.42968        17.55464         2.85497
   C       15.09761        17.65253         4.21495
   C       13.80589        17.46584         4.62664
   C        9.07119        16.44928         3.33902
   O        8.46299        16.41755         4.38681
   C        8.51329        16.24881         1.96505
   C        7.20555        16.18449         1.66798
   C        6.10919        16.20172         2.67576
   C        5.03218        17.24198         2.32038
   O        5.17920        18.41689         2.19242
   O        3.83826        16.62079         2.16454
   C        3.98991        15.27177         2.34527
   C        5.31010        14.93518         2.65296
   C        5.69392        13.62625         2.87085
   C        4.68586        12.68646         2.75929
   C        3.36735        13.01819         2.44150
   C        2.98219        14.32975         2.23604
   C        2.58356        11.74499         2.40538
   C        3.66037        10.70955         2.77024
   O        3.52241         9.53037         2.89340
   O        4.84450        11.33534         2.94607
   C        1.39911        11.71059         3.32283
   C        0.83202        10.57440         3.74980
   C       -0.31179        10.57609         4.60727
   N       -0.88927         9.44364         5.10565
   C       -0.48447         8.08027         4.85848
   C       -0.99922         7.57296         3.51385
   C       -2.02295         9.73583         5.90660
   O       -2.68236         8.88953         6.46341
   C       -2.11118        11.17966         5.86725
   C       -1.04554        11.66535         5.07784
   C       -1.13896        13.10605         5.06307
   O       -0.45102        13.95625         4.52861
   N       -2.26114        13.40185         5.85672
   C       -2.67887        14.77654         5.99915
   C       -3.88247        15.10351         5.11867
   C       -2.86496        12.25665         6.33911
   C       -4.01221        12.08571         7.14562
   C       -4.80798        13.01848         7.74191
   C       -5.95233        12.70613         8.51423
   C       -6.54909        11.48491         8.76797
   C       -7.69283        11.68349         9.58622
   C       -7.76889        13.13693         9.84447
   C       -6.73605        13.72953         9.19526
   C       -8.71981        13.81535        10.61470
   N       -9.47347        14.41521        11.24089
   C       -8.57419        10.73100        10.05012
   C       -9.70050        10.93592        10.90374
   C      -10.28212         9.71883        11.18588
   C       -9.55935         8.69540        10.44275
   C       -8.54194         9.29007         9.76421
   C       -7.66632         8.62491         8.89805
   N       -6.97479         8.05448         8.18000
   C      -11.41774         9.52825        12.01935
   C      -11.68899         8.42082        12.76483
   C      -12.90461         8.14214        13.50828
   C      -14.09348         8.81544        13.40148
   C      -15.25524         8.48811        14.13177
   N      -16.22978         8.27475        14.69985
   C      -14.33441         9.90049        12.53225
   N      -14.61162        10.77089        11.83668
   C      -12.66398         6.96247        14.33015
   C      -11.34126         6.49574        14.08198
   C      -10.68163         7.37760        13.10578
   O       -9.53224         7.31260        12.72680
   C      -10.83363         5.39447        14.70917
   C      -11.64407         4.69087        15.62763
   C      -12.96796         5.15181        15.88382
   C      -13.46379         6.29914        15.22327
   C      -13.76745         4.44241        16.80312
   C      -13.28468         3.33088        17.43861
   C      -11.98089         2.87851        17.18602
   C      -11.17802         3.54388        16.29964
   H       11.17512        17.05345         5.13792
   H       12.41544        16.70296         0.32045
   H       14.71800        17.19292         0.87769
   H       16.45359        17.70508         2.54780
   H       15.87059        17.87682         4.93444
   H       13.54425        17.54023         5.67188
   H        6.88186        16.10412         0.63875
   H        6.51886        16.41708         3.66965
   H        6.70545        13.35269         3.11778
   H        1.96669        14.60778         2.01065
   H        2.24094        11.51639         1.38701
   H        1.00909        12.67371         3.62451
   H        1.24374         9.61973         3.45703
   H       -0.92102         7.48428         5.66481
   H        0.60470         8.00730         4.91079
   H       -2.08542         7.61515         3.49165
   H       -0.68854         6.54228         3.36949
   H       -0.60947         8.17319         2.69481
   H       -1.82265        15.37786         5.67780
   H       -2.87523        14.99677         7.05123
   H       -3.62124        14.96403         4.07258
   H       -4.17620        16.13917         5.26650
   H       -4.72876        14.46057         5.34979
   H       -4.25473        11.04128         7.29653
   H       -4.58968        14.07206         7.65545
   H       -6.22262        10.52903         8.40943
   H       -6.51252        14.78098         9.17953
   H      -10.00414        11.88317        11.30557
   H       -9.82539         7.65767        10.39662
   H      -12.09490        10.37257        12.07341
   H       -9.82666         5.06257        14.50375
   H      -14.46707         6.62677        15.44483
   H      -14.77077         4.79405        16.99387
   H      -13.90530         2.79360        18.13994
   H      -11.61590         2.00028        17.69719
   H      -10.17330         3.20057        16.10092
*
