# ORCA input file
# SCF done       -211.361045969696          0.000416947491
! CAM-B3LYP def2-SVP def2/J RIJCOSX Grid4 TightSCF
%maxcore 5000
%tddft
    Mode sTDDFT
    Ethresh 5.0
    maxcore 5000
end

%pal
  nprocs 6
  end
* xyz 0 1
   C       -0.54100         2.26955         0.08243
   C        0.00195         3.31109         0.78728
   C        0.20954         3.29234         2.18210
   N        0.38322         3.33796         3.31559
   C        0.47928         4.49808         0.19753
   N        0.89319         5.47475        -0.24245
   C       -0.83201         0.94437         0.61559
   C       -0.94552         0.02871        -0.47232
   C       -1.18243        -1.30040        -0.26880
   C       -1.32801        -1.78094         1.05197
   C       -1.23145        -0.86827         2.14249
   C       -0.98001         0.50195         1.90304
   C       -1.38644        -1.35941         3.45485
   C       -1.62224        -2.68799         3.68168
   C       -1.71587        -3.58588         2.60771
   C       -1.57151        -3.14219         1.32113
   C       -0.79020         0.75652        -1.74299
   O       -0.79673         0.31536        -2.86798
   C       -0.70192         2.19618        -1.35645
   C       -0.84320         3.15633        -2.30022
   C       -1.19258         4.52679        -2.10487
   S       -2.35105         4.98474        -0.89275
   C       -2.30133         6.65059        -1.38965
   C       -1.43008         6.81670        -2.45601
   C       -0.79015         5.62458        -2.84262
   C        0.31590         5.57994        -3.85243
   N        1.54546         5.02724        -3.16053
   O        1.50850         3.85659        -2.87530
   O        2.46117         5.77147        -2.95382
   C        0.62549         6.95789        -4.42646
   C       -0.63957         7.78592        -4.59658
   C       -1.25557         8.09050        -3.22766
   N       -2.58967         8.70442        -3.48250
   O       -2.75231         9.84592        -3.12481
   O       -3.40987         8.02334        -4.04235
   C       -3.06962         7.64585        -0.72933
   C       -3.96471         7.36316         0.24938
   C       -4.80991         8.26151         0.94417
   S       -5.93471         7.54731         2.06074
   C       -6.62511         9.09825         2.44712
   C       -6.00451        10.11266         1.71301
   C       -4.96803         9.64846         0.89285
   C       -4.12535        10.57072         0.07296
   C       -4.38401        12.03686         0.41646
   C       -5.87661        12.32875         0.55676
   C       -6.65417        11.99502        -0.71443
   C       -6.42199        11.54503         1.75389
   C       -7.65384         9.16499         3.41461
   C       -8.24423        10.26091         4.01106
   C       -9.21502         9.82115         4.94814
   C       -9.20162         8.34401         4.89565
   C       -8.27086         7.96965         3.98512
   C      -10.01076         7.46420         5.62327
   N      -10.66188         6.71144         6.19663
   C      -10.01282        10.60346         5.75349
   C      -10.95123        10.16551         6.73407
   C      -11.58209        11.26334         7.28136
   C      -11.00678        12.45540         6.67868
   C      -10.06717        12.07241         5.77177
   C       -9.28820        12.94337         5.00349
   N       -8.65256        13.66955         4.37889
   C      -12.57633        11.19560         8.29461
   C      -13.58720        12.08052         8.51895
   C      -14.52067        12.05003         9.63150
   C      -14.36332        11.35182        10.79999
   C      -15.28901        11.37602        11.86413
   N      -16.00605        11.35178        12.76027
   C      -13.24501        10.55261        11.11937
   N      -12.35699         9.90931        11.45984
   C      -15.60922        12.96930         9.32703
   C      -15.32678        13.61274         8.08826
   C      -14.05781        13.10225         7.54232
   O      -13.55452        13.39984         6.48096
   C      -16.17129        14.53893         7.54710
   C      -17.36048        14.87067         8.23377
   C      -17.65425        14.22602         9.47024
   C      -16.76072        13.27032        10.00552
   C      -18.84725        14.55977        10.14318
   C      -19.70892        15.48635         9.62237
   C      -19.41818        16.12116         8.40551
   C      -18.26883        15.82030         7.72623
   H       -1.25771        -1.97837        -1.10593
   H       -0.92140         1.17291         2.74588
   H       -1.31056        -0.66482         4.27846
   H       -1.73760        -3.05478         4.69052
   H       -1.90322        -4.63071         2.80496
   H       -1.64270        -3.82893         0.49044
   H       -0.78688         2.81027        -3.32822
   H        0.07938         4.84426        -4.63024
   H        1.13201         6.85354        -5.38629
   H        1.30450         7.47447        -3.74426
   H       -1.37248         7.23602        -5.19288
   H       -0.40283         8.71865        -5.11043
   H       -0.66434         8.82984        -2.67617
   H       -2.90642         8.66429        -1.03393
   H       -4.09015         6.32197         0.52595
   H       -4.32542        10.40375        -0.98951
   H       -3.06985        10.34705         0.24819
   H       -3.94780        12.66434        -0.36163
   H       -3.89049        12.28131         1.35984
   H       -6.00326        13.39586         0.76476
   H       -6.68677        10.92202        -0.88617
   H       -6.19364        12.47009        -1.57728
   H       -7.67727        12.35495        -0.63236
   H       -7.51214        11.60714         1.76376
   H       -6.06068        11.99769         2.68256
   H       -8.00423        11.29012         3.85216
   H       -8.01787         6.96368         3.70390
   H      -11.15555         9.14030         6.97533
   H      -11.25679        13.46475         6.93955
   H      -12.52430        10.30947         8.91706
   H      -15.93419        15.01290         6.60607
   H      -17.01463        12.79395        10.93917
   H      -19.06605        14.06912        11.08023
   H      -20.61997        15.73541        10.14552
   H      -20.10967        16.84939         8.00885
   H      -18.03981        16.30543         6.78865
*
