# ORCA input file
# SCF done       -175.178482146686          0.000443477765
! CAM-B3LYP def2-SVP def2/J RIJCOSX Grid4 TightSCF
%maxcore 5000
%tddft
    Mode sTDDFT
    Ethresh 5.0
    maxcore 5000
end

%pal
  nprocs 6
  end
* xyz 0 1
   C        1.31929         1.98660        -6.46711
   N        0.21545         1.31115        -6.05517
   C       -0.30376         0.10218        -6.64231
   C        0.52866        -1.11489        -6.24729
   C       -0.36210         1.91004        -4.90456
   O       -1.37305         1.49737        -4.37968
   C        0.51043         3.02760        -4.63067
   C        1.53212         3.04833        -5.63339
   C        2.37428         4.19507        -5.37461
   O        3.36799         4.61890        -5.92224
   N        1.78262         4.81842        -4.25116
   C        2.46037         5.92659        -3.62062
   C        3.00572         5.56400        -2.24288
   C        0.68143         4.11994        -3.79899
   C       -0.17696         4.42523        -2.70014
   C       -0.43878         5.64469        -2.17859
   C       -1.35874         5.86770        -1.11735
   S       -1.90599         7.51063        -0.81124
   C       -1.97934         5.01270        -0.23386
   C       -1.96595         3.57996         0.10710
   O       -1.32975         2.66768        -0.36109
   N       -2.87350         3.45184         1.15223
   C       -3.14305         2.18895         1.80445
   C       -2.15916         1.93162         2.94062
   C       -3.45767         4.65182         1.54696
   O       -4.25691         4.77107         2.44326
   C       -2.87513         5.65719         0.65110
   C       -2.98907         7.01666         0.47695
   C       -3.87016         7.91487         1.12947
   C       -3.99002         9.20450         0.74759
   C       -4.91042        10.17005         1.25959
   C       -5.25755        11.26685         0.52735
   C       -6.09587        12.36830         1.12375
   C       -5.84441        12.48152         2.59045
   C       -5.84868        13.60319         3.35302
   S       -5.49204        13.25904         5.00259
   C       -5.32353        11.58106         4.65209
   C       -5.54115        11.31310         3.34025
   C       -5.46683         9.99081         2.64870
   C       -4.88331        11.40699        -0.85152
   S       -4.43093        12.97369        -1.51574
   C       -4.79195        10.45885        -1.84311
   C       -5.14665         9.04167        -2.03242
   O       -5.63813         8.24800        -1.26517
   N       -4.83005         8.76711        -3.35696
   C       -5.03999         7.47133        -3.96742
   C       -4.03078         6.44287        -3.47141
   C       -4.34042         9.86687        -4.06244
   O       -4.01649         9.84815        -5.22471
   C       -4.34690        10.96270        -3.09037
   C       -4.08873        12.31360        -3.10764
   C       -3.63201        13.09727        -4.19431
   C       -3.40663        14.42970        -4.12314
   C       -2.94156        15.21885        -5.20434
   O       -2.75142        16.55206        -5.02148
   C       -2.30753        17.08951        -6.17792
   C       -2.20380        16.09083        -7.13480
   C       -2.61033        14.88769        -6.51488
   O       -2.67198        13.65975        -7.05583
   S       -1.68520        16.18758        -8.81363
   C       -2.02600        18.49356        -6.25750
   C       -2.17664        19.34225        -5.24125
   H        1.87048         1.66926        -7.33337
   H       -0.32805         0.21154        -7.73079
   H       -1.32545        -0.00783        -6.26866
   H        1.55487        -1.00701        -6.59199
   H        0.10422        -2.01245        -6.68820
   H        0.53453        -1.22630        -5.16587
   H        1.80074         6.79633        -3.56303
   H        3.28860         6.17311        -4.29297
   H        2.20261         5.28657        -1.56423
   H        3.53902         6.41379        -1.82549
   H        3.69505         4.72713        -2.32473
   H       -0.70883         3.56386        -2.31629
   H       -0.00283         6.54004        -2.59762
   H       -3.06184         1.40524         1.04739
   H       -4.16521         2.23349         2.18773
   H       -1.14261         1.89973         2.55518
   H       -2.38394         0.98015         3.41405
   H       -2.23177         2.72018         3.68633
   H       -4.50392         7.46976         1.88266
   H       -3.34583         9.54186        -0.05713
   H       -7.15357        12.12691         0.95517
   H       -5.89352        13.31514         0.61863
   H       -6.03928        14.61442         3.05397
   H       -5.07508        10.90010         5.44126
   H       -6.47540         9.56844         2.56493
   H       -4.85830         9.29356         3.22365
   H       -4.94492         7.61768        -5.04595
   H       -6.05474         7.14075        -3.72759
   H       -3.01566         6.78178        -3.66664
   H       -4.18569         5.49617        -3.98096
   H       -4.15789         6.28661        -2.40300
   H       -3.46235        12.55911        -5.11598
   H       -3.57885        14.96475        -3.19793
   H       -2.38764        13.69089        -7.97891
   H       -1.40978        17.48616        -8.80013
   H       -1.67285        18.84507        -7.21825
   H       -2.52729        19.00246        -4.28268
   H       -1.95311        20.38850        -5.34445
*
