# ORCA input file
# SCF done       -196.160580306779          0.000944808022
! CAM-B3LYP def2-SVP def2/J RIJCOSX Grid4 TightSCF
%maxcore 5000
%tddft
    Mode sTDDFT
    Ethresh 5.0
    maxcore 5000
end

%pal
  nprocs 6
  end
* xyz 0 1
   C       -0.44142        -3.16066         6.52023
   C       -0.28408        -4.36034         5.81846
   C        0.84735        -5.14366         6.05977
   C        1.80941        -4.72960         6.98183
   C        1.63091        -3.54674         7.66390
   C        0.50322        -2.76040         7.43579
   O        1.06617        -6.30367         5.39793
   C        0.11638        -6.79276         4.59218
   C        0.49318        -8.11051         4.00792
   C       -1.03987        -6.13491         4.30398
   C       -1.26978        -4.77170         4.81540
   O       -2.17019        -4.03497         4.44295
   C       -2.10561        -6.72295         3.51410
   C       -2.90925        -7.81394         3.80549
   N       -2.84792        -8.65055         4.92281
   O       -3.82061        -9.35607         5.14985
   O       -1.84902        -8.63404         5.62730
   C       -4.00897        -7.86262         2.86813
   C       -3.94609        -6.76525         2.08097
   C       -2.78642        -5.99574         2.46217
   C       -2.42327        -4.73594         2.00889
   C       -1.12532        -4.23584         1.71059
   C       -1.25798        -3.08175         0.98826
   C       -2.64373        -2.75618         0.87028
   N       -3.13023        -1.59417         0.26353
   O       -4.34152        -1.41351         0.24786
   O       -2.32056        -0.82838        -0.23374
   C       -3.39137        -3.73163         1.53782
   C       -4.74140        -3.74232         1.90597
   C       -5.15234        -4.45774         3.01018
   C       -6.42020        -4.89137         3.41288
   N       -7.65813        -4.73623         2.83340
   C       -8.01469        -3.85298         1.74851
   C       -8.03514        -2.39111         2.18473
   C       -8.63637        -5.51331         3.47699
   O       -9.80425        -5.53178         3.14372
   C       -7.91767        -6.22063         4.52186
   C       -6.58361        -5.80174         4.47174
   C       -5.82896        -6.54101         5.46964
   O       -4.66643        -6.49605         5.80062
   N       -6.78316        -7.39860         6.04853
   C       -6.40577        -8.34734         7.07087
   C       -6.63500        -7.78941         8.47178
   C       -8.03308        -7.21363         5.51860
   C       -9.18288        -7.90619         5.93951
   C      -10.41594        -7.67113         5.39686
   C      -11.60574        -8.31689         5.79921
   C      -11.80038        -9.27070         6.78162
   C      -13.18384        -9.60317         6.84598
   C      -13.84733        -8.79666         5.80367
   C      -12.90113        -8.03942         5.19254
   C      -15.20214        -8.82695         5.44909
   N      -16.29778        -8.83766         5.10523
   C      -13.78989       -10.47930         7.71379
   C      -15.18578       -10.76185         7.83938
   C      -15.36613       -11.71191         8.80683
   C      -14.06274       -12.05932         9.35261
   C      -13.11146       -11.32468         8.71662
   C      -11.74137       -11.38126         8.98208
   N      -10.61873       -11.44829         9.22166
   C      -16.64049       -12.20384         9.29155
   C      -16.86563       -13.51189         9.59313
   O      -18.02726       -13.97309        10.08297
   C      -19.05539       -13.11605        10.30624
   C      -20.23633       -13.64459        10.82737
   C      -21.30790       -12.80980        11.05854
   C      -21.22000       -11.44908        10.77471
   C      -20.05594       -10.92751        10.25833
   C      -18.95447       -11.75346        10.01931
   C      -17.70882       -11.19874         9.46780
   O      -17.57254       -10.01924         9.20450
   C      -15.88785       -14.62305         9.37467
   H       -1.32219        -2.57102         6.31746
   H        2.67462        -5.35251         7.14386
   H        2.37179        -3.22779         8.38099
   H        0.37509        -1.83644         7.97797
   H        1.57557        -8.19027         3.94928
   H        0.04855        -8.24354         3.02583
   H        0.12274        -8.89685         4.66778
   H       -4.72803        -8.65851         2.84214
   H       -4.58305        -6.52462         1.25186
   H       -0.20796        -4.75103         1.92404
   H       -0.47063        -2.48469         0.56689
   H       -5.41324        -3.12366         1.32764
   H       -4.37551        -4.76917         3.69970
   H       -9.01690        -4.15725         1.43208
   H       -7.32297        -4.00478         0.91544
   H       -8.78621        -2.24296         2.95730
   H       -8.27927        -1.75982         1.33533
   H       -7.06885        -2.08386         2.57738
   H       -5.34376        -8.55774         6.91857
   H       -6.96168        -9.27537         6.92300
   H       -6.04217        -6.88947         8.61567
   H       -6.33448        -8.52567         9.21138
   H       -7.68414        -7.54512         8.62699
   H       -9.07535        -8.63717         6.72736
   H      -10.50895        -6.93894         4.60464
   H      -11.05037        -9.69203         7.42077
   H      -13.05310        -7.34424         4.38758
   H      -15.95728       -10.29556         7.26087
   H      -13.89336       -12.75065        10.15689
   H      -20.28624       -14.70132        11.03730
   H      -22.22248       -13.21685        11.46205
   H      -22.06628       -10.80631        10.96123
   H      -19.95506        -9.87833        10.02618
   H      -15.35252       -14.84126        10.29863
   H      -15.17074       -14.36699         8.60129
   H      -16.43002       -15.52206         9.08916
*
