# ORCA input file
# SCF done       -215.167626801428          0.000748885039
! CAM-B3LYP def2-SVP def2/J RIJCOSX Grid4 TightSCF
%maxcore 5000
%tddft
    Mode sTDDFT
    Ethresh 5.0
    maxcore 5000
end

%pal
  nprocs 6
  end
* xyz 0 1
   C      -10.57271        -4.25566         2.67711
   C       -9.23410        -4.28885         2.95988
   C       -8.50413        -5.47292         3.19580
   N       -7.86160        -6.40296         3.39284
   C       -8.41287        -3.14235         2.99011
   N       -7.70942        -2.23491         3.00378
   C      -11.46416        -5.39682         2.54453
   C      -12.71095        -4.95799         2.02407
   C      -13.75975        -5.81638         1.79980
   C      -13.57629        -7.16631         2.11240
   C      -12.32971        -7.59474         2.63331
   C      -11.26527        -6.73018         2.85286
   S      -12.33415        -9.30061         2.94949
   C      -13.96752        -9.42433         2.39472
   C      -14.49318        -8.24758         1.98929
   C      -12.65600        -3.50787         1.78803
   O      -13.41278        -2.82435         1.13937
   C      -11.37021        -3.06750         2.41798
   C      -11.10517        -1.79162         2.76835
   C      -12.04693        -0.71322         2.68778
   C      -13.36439        -0.66260         3.11178
   N      -14.13416        -1.66228         3.73254
   O      -13.62340        -2.74857         3.96996
   O      -15.27711        -1.37538         4.03763
   C      -13.86909         0.67814         2.93744
   C      -12.86737         1.45980         2.46961
   C      -11.68851         0.64984         2.29841
   C      -10.48053         1.03401         1.74815
   C       -9.58376         0.19830         1.02489
   C       -8.67454         0.98013         0.36580
   C       -8.90269         2.34561         0.70091
   N       -8.10863         3.39266         0.22287
   O       -8.35060         4.54196         0.59315
   O       -7.21431         3.11659        -0.55558
   C       -9.97771         2.41639         1.60822
   C      -10.32110         3.55857         2.32484
   C      -11.05810         3.66089         3.48482
   C      -11.32109         4.88456         4.09375
   S      -12.35245         4.95021         5.50941
   C      -12.30722         6.69300         5.62734
   C      -11.46864         7.20718         4.61574
   C      -10.93089         6.19793         3.76902
   N      -10.13998         6.79405         2.84567
   C      -10.15093         8.14877         3.07825
   C       -9.42234         9.05389         2.28964
   N       -8.83928         9.81393         1.66037
   C      -10.96304         8.44114         4.15820
   C      -13.08302         7.31514         6.60644
   C      -13.21680         8.67063         6.77539
   C      -14.06514         9.27271         7.71839
   C      -14.26147        10.64171         7.86771
   C      -15.22429        10.87116         8.87602
   C      -15.62443         9.53845         9.37087
   C      -14.92951         8.60025         8.67827
   C      -16.57763         9.25838        10.35819
   N      -17.36822         8.99422        11.14869
   C      -15.72696        12.08081         9.31830
   C      -16.69067        12.28130        10.33383
   C      -16.93734        13.63558        10.47402
   C      -16.09643        14.33711         9.51201
   C      -15.37158        13.42438         8.81543
   C      -14.46011        13.71276         7.79441
   N      -13.71879        13.96766         6.95428
   C      -17.82264        14.26731        11.37797
   C      -18.62024        13.58007        12.24374
   C      -19.48933        14.19680        13.16777
   C      -20.17198        13.56855        14.16672
   C      -20.07267        12.22325        14.69392
   C      -18.94235        11.45005        14.75760
   C      -18.89820        10.18317        15.37890
   N      -18.81209         9.15147        15.87334
   C      -17.66205        11.86679        14.33381
   N      -16.59120        12.17003        14.05358
   C      -21.33718        11.93164        15.36029
   C      -22.09074        13.13188        15.45593
   C      -21.35560        14.22399        14.79548
   O      -21.65502        15.39303        14.71906
   C      -23.32099        13.18053        16.06728
   C      -23.83546        11.99318        16.59652
   C      -23.08218        10.79885        16.48136
   C      -21.83409        10.74888        15.87103
   S      -23.91915         9.45656        17.19147
   C      -25.24050        10.48183        17.63185
   C      -25.07166        11.77139        17.26625
   H      -14.69655        -5.45438         1.40618
   H      -10.33712        -7.09957         3.25722
   H      -14.44135       -10.38667         2.40795
   H      -15.49428        -8.13213         1.61534
   H      -10.13355        -1.53023         3.16990
   H      -14.88236         0.95763         3.15290
   H      -12.94660         2.48529         2.16551
   H       -9.68961        -0.86320         0.91772
   H       -7.90297         0.65104        -0.30466
   H       -9.87088         4.46116         1.94305
   H      -11.44553         2.77679         3.96986
   H       -9.58522         6.35607         2.12318
   H      -11.13901         9.42329         4.54621
   H      -13.63691         6.64992         7.25450
   H      -12.66534         9.34031         6.13252
   H      -13.76676        11.40726         7.30244
   H      -15.00761         7.53808         8.81424
   H      -17.12875        11.49418        10.91221
   H      -16.07120        15.40395         9.38632
   H      -17.83306        15.34978        11.39204
   H      -18.60936        12.50054        12.21050
   H      -19.69944        15.25400        13.04450
   H      -23.87013        14.10693        16.13287
   H      -21.29996         9.81594        15.79801
   H      -26.07644        10.04790        18.14524
   H      -25.78804        12.54998        17.45597
*
