# ORCA input file
# SCF done       -252.610641853873          0.001006115118
! CAM-B3LYP def2-SVP def2/J RIJCOSX Grid4 TightSCF
%maxcore 5000
%tddft
    Mode sTDDFT
    Ethresh 5.0
    maxcore 5000
end

%pal
  nprocs 6
  end
* xyz 0 1
   C      -12.83580        -3.44359         3.10181
   C      -13.50745        -3.12364         1.95497
   F      -14.25731        -2.01800         1.90290
   C      -13.42395        -3.95214         0.81694
   F      -14.09766        -3.61528        -0.28724
   C      -12.67243        -5.09323         0.84324
   C      -11.96921        -5.44840         2.00980
   C      -12.04642        -4.60865         3.15949
   C      -11.32518        -4.93158         4.33185
   C      -10.53040        -6.04752         4.34780
   C      -10.46009        -6.87931         3.19430
   C      -11.16736        -6.60841         2.05708
   C       -9.47955        -7.94498         3.42445
   O       -9.27028        -8.91859         2.72903
   C       -8.85088        -7.63276         4.73541
   C       -9.60190        -6.55969         5.35224
   C       -9.40177        -6.04465         6.60508
   C       -8.40344        -6.49356         7.49589
   N       -7.58048        -6.78786         8.23926
   C      -10.16267        -4.98974         7.15218
   N      -10.75569        -4.14071         7.64593
   C       -7.76971        -8.33197         5.20069
   C       -6.87941        -8.98765         4.32290
   C       -6.28555       -10.24541         4.43657
   N       -6.52052       -11.16628         5.46866
   O       -6.03465       -12.27987         5.35173
   O       -7.20272       -10.80945         6.41292
   C       -5.54816       -10.52196         3.25572
   C       -5.69793        -9.46070         2.38982
   C       -6.50074        -8.47426         3.00037
   C       -6.94045        -7.23575         2.50136
   C       -7.09951        -6.04038         3.23108
   C       -7.77071        -5.12480         2.45088
   C       -8.10332        -5.72276         1.21413
   N       -8.90782        -5.05989         0.28256
   O       -9.48877        -4.05426         0.66576
   O       -9.02419        -5.51351        -0.84707
   C       -7.56369        -7.03601         1.17709
   C       -7.75067        -8.14131         0.36138
   C       -8.47113        -8.31428        -0.81304
   C       -8.69135        -9.57242        -1.34925
   S       -9.15786        -9.73531        -3.01499
   C       -8.95588       -11.46878        -3.00650
   C       -8.53976       -11.92034        -1.72234
   C       -8.48775       -10.86750        -0.76272
   C       -8.28109       -11.15712         0.57835
   C       -7.93081       -12.45443         0.96553
   O       -7.66443       -12.60783         2.26704
   C       -7.23631       -13.86309         2.76225
   C       -7.85550       -13.46794        -0.00575
   C       -8.17803       -13.21191        -1.31805
   C       -9.22511       -12.14747        -4.19134
   C       -9.38469       -13.51322        -4.33132
   C       -9.62155       -14.18768        -5.52808
   C      -10.29448       -15.42072        -5.63403
   N      -10.64078       -16.31066        -4.60288
   O      -11.29888       -17.28840        -4.90585
   O      -10.25012       -16.07544        -3.46655
   C      -10.67241       -15.62811        -6.99040
   C      -10.20961       -14.58966        -7.74846
   C       -9.44094       -13.71494        -6.91948
   C       -8.52612       -12.77248        -7.34272
   C       -7.48173       -12.15591        -6.54401
   C       -6.84112       -11.22735        -7.28437
   C       -7.44969       -11.21693        -8.59623
   N       -7.04125       -10.40214        -9.66721
   O       -6.14617        -9.60484        -9.46577
   O       -7.61538       -10.54992       -10.73554
   C       -8.42697       -12.18179        -8.67580
   C       -9.17947       -12.44416        -9.89089
   C       -9.00231       -13.52329       -10.67764
   C       -8.01754       -14.51857       -10.40466
   C       -7.77602       -15.66541       -11.08644
   C       -6.46979       -16.36349       -10.90150
   O       -5.69453       -16.20821        -9.98827
   C       -6.32390       -17.22438       -12.09124
   C       -5.25208       -17.97591       -12.47972
   C       -5.32710       -18.70815       -13.68538
   C       -6.51490       -18.64350       -14.47139
   C       -6.58024       -19.37256       -15.67594
   C       -5.51801       -20.13164       -16.07994
   C       -4.34397       -20.19536       -15.30146
   C       -4.24938       -19.49923       -14.12910
   F       -3.31904       -20.94604       -15.72268
   F       -5.58194       -20.82449       -17.22278
   C       -7.61113       -17.86160       -14.04196
   C       -7.51929       -17.16661       -12.86534
   C       -8.48608       -16.32742       -12.16405
   C       -9.84179       -16.34684       -12.35033
   C      -10.74860       -15.76056       -11.44361
   N      -11.50774       -15.34775       -10.68824
   C      -10.48171       -17.05402       -13.39042
   N      -11.04229       -17.59683       -14.23153
   H      -12.90754        -2.79444         3.96048
   H      -12.61069        -5.71200        -0.03821
   H      -11.40337        -4.27395         5.18269
   H      -11.09087        -7.25505         1.19515
   H       -7.56286        -8.40259         6.26241
   H       -4.97919       -11.41743         3.09476
   H       -5.18843        -9.34454         1.45108
   H       -6.69912        -5.86370         4.21180
   H       -8.02559        -4.11490         2.71254
   H       -7.23649        -9.02234         0.71192
   H       -8.82193        -7.45150        -1.36371
   H       -8.42342       -10.42911         1.35822
   H       -6.96508       -13.69101         3.80359
   H       -6.35972       -14.22671         2.22010
   H       -8.03777       -14.60388         2.70661
   H       -7.57561       -14.47073         0.27328
   H       -8.12666       -14.01966        -2.02770
   H       -9.39617       -11.52185        -5.05896
   H       -9.48355       -14.11456        -3.43873
   H      -11.23904       -16.47337        -7.33270
   H      -10.34803       -14.48777        -8.80528
   H       -7.23069       -12.45541        -5.54626
   H       -6.01144       -10.60590        -7.00958
   H       -9.86828       -11.66905       -10.20212
   H       -9.57952       -13.60426       -11.58585
   H       -7.31316       -14.29863        -9.60860
   H       -4.35853       -18.01074       -11.87532
   H       -7.47192       -19.33753       -16.28215
   H       -3.34427       -19.55832       -13.54518
   H       -8.49440       -17.82292       -14.65954
*
