# ORCA input file
# SCF done       -271.869010714628          0.001373432539
! CAM-B3LYP def2-SVP def2/J RIJCOSX Grid4 TightSCF
%maxcore 5000
%tddft
    Mode sTDDFT
    Ethresh 5.0
    maxcore 5000
end

%pal
  nprocs 6
  end
* xyz 0 1
   C      -19.23213       -18.86002        -0.56881
   C      -20.39578       -19.51153        -0.86721
   F      -20.75340       -20.60072        -0.17614
   C      -21.23205       -19.04842        -1.90362
   F      -22.36586       -19.70673        -2.17276
   C      -20.89216       -17.93963        -2.62762
   C      -19.69892       -17.24740        -2.34533
   C      -18.85210       -17.71514        -1.29834
   C      -17.64429       -17.04340        -1.00438
   C      -17.28790       -15.94411        -1.74237
   C      -18.14290       -15.48218        -2.78335
   C      -19.32098       -16.10165        -3.08111
   C      -17.53916       -14.29772        -3.42018
   O      -18.06307       -13.52450        -4.18696
   C      -16.19763       -14.15255        -2.77987
   C      -16.09505       -15.10556        -1.70355
   C      -15.02443       -15.27765        -0.85726
   C      -13.82221       -14.55644        -0.86909
   N      -12.78398       -14.06350        -0.79511
   C      -14.96550       -16.25882         0.15663
   N      -14.83961       -17.02748         0.99973
   C      -15.27215       -13.23872        -3.18128
   C      -15.26015       -12.57986        -4.43954
   C      -15.59208       -13.05851        -5.71709
   N      -16.07097       -14.31879        -6.11155
   O      -16.15262       -15.21906        -5.28288
   O      -16.32892       -14.47423        -7.29059
   C      -15.19578       -12.09361        -6.69435
   C      -14.58704       -11.05304        -6.06219
   C      -14.61692       -11.29920        -4.64681
   C      -14.26869       -10.37882        -3.66365
   C      -14.89437       -10.15344        -2.42910
   C      -14.50903        -8.90790        -1.96247
   C      -13.55449        -8.34437        -2.84131
   N      -12.92919        -7.10533        -2.64109
   O      -12.07421        -6.75793        -3.44472
   O      -13.28598        -6.44099        -1.68667
   C      -13.29682        -9.26736        -3.86908
   C      -12.22547        -9.30751        -4.75194
   C      -11.81832       -10.48973        -5.34502
   N      -10.82057       -10.62664        -6.19399
   C      -10.36737       -11.93734        -6.62597
   C      -10.25929       -12.86812        -5.44380
   C      -11.21589       -13.84275        -5.20004
   C      -11.14092       -14.65927        -4.07515
   O      -12.01036       -15.65097        -3.76923
   C      -13.14110       -15.87535        -4.59308
   C      -13.88694       -17.08153        -4.04837
   C      -10.08800       -14.45805        -3.17270
   C       -9.13349       -13.48805        -3.42041
   C       -9.19844       -12.68072        -4.54968
   O       -8.32892       -11.68042        -4.85524
   C       -7.12752       -11.53722        -4.11190
   C       -6.11296       -12.63923        -4.39161
   C      -10.01580       -15.28969        -1.91096
   N      -10.00693       -14.44817        -0.73770
   C       -8.93301       -13.95582        -0.14868
   C       -7.63495       -14.30450        -0.48666
   C       -6.45298       -13.78600         0.02266
   C       -5.19763       -14.42010        -0.06315
   N       -4.85389       -15.55187        -0.79757
   O       -5.68360       -16.03675        -1.56579
   O       -3.72569       -15.99852        -0.66010
   C       -4.28400       -13.73728         0.78514
   C       -4.91364       -12.66933         1.36768
   C       -6.23881       -12.57846         0.86578
   C       -7.05837       -11.46857         0.94198
   C       -8.07186       -11.06650        -0.00073
   C       -8.45223        -9.79835         0.28119
   C       -7.71543        -9.33826         1.43148
   N       -8.00289        -8.08868         2.01211
   O       -7.31043        -7.67731         2.93312
   O       -8.95348        -7.47682         1.55800
   C       -6.85629       -10.34299         1.85458
   C       -6.01063       -10.40603         3.01104
   C       -5.21125        -9.40629         3.44338
   C       -4.98427        -8.23034         2.67368
   C       -4.41474        -7.05976         3.06386
   C       -3.90091        -6.12440         2.02765
   O       -4.08323        -6.19972         0.83411
   C       -3.06110        -5.15774         2.76085
   C       -2.26215        -4.16912         2.26272
   C       -1.48353        -3.40023         3.15548
   C       -1.54755        -3.67589         4.55229
   C       -0.74895        -2.92161         5.43559
   C        0.07144        -1.94004         4.95506
   C        0.12907        -1.66454         3.57393
   C       -0.63272        -2.37766         2.69182
   F        0.94325        -0.69623         3.13145
   F        0.83418        -1.22837         5.79560
   C       -2.39744        -4.69522         5.04008
   C       -3.14981        -5.42386         4.15757
   C       -4.10103        -6.51665         4.36730
   C       -4.70229        -6.82500         5.55637
   C       -5.75735        -7.74778         5.73833
   N       -6.61252        -8.46713         5.99660
   C       -4.37802        -6.18857         6.77478
   N       -4.13986        -5.72130         7.79568
   H      -18.60329       -19.22912         0.22635
   H      -21.54219       -17.59861        -3.41803
   H      -17.02865       -17.42137        -0.20405
   H      -19.94853       -15.73198        -3.87740
   H      -14.44963       -12.98847        -2.51968
   H      -15.36441       -12.21577        -7.74700
   H      -14.24284       -10.14249        -6.51317
   H      -15.66004       -10.77210        -2.00189
   H      -14.86915        -8.41413        -1.07845
   H      -11.63610        -8.40790        -4.87084
   H      -12.30307       -11.41567        -5.06494
   H      -10.30305        -9.81109        -6.49345
   H       -9.38900       -11.81954        -7.09300
   H      -11.07129       -12.34185        -7.36098
   H      -12.02096       -13.96426        -5.90844
   H      -12.83095       -16.06118        -5.62863
   H      -13.78906       -14.99088        -4.56429
   H      -14.05083       -16.96363        -2.98047
   H      -13.31485       -17.98997        -4.21287
   H      -14.84905       -17.15731        -4.54593
   H       -8.33017       -13.36916        -2.71308
   H       -7.34489       -11.46338        -3.03992
   H       -6.73090       -10.57410        -4.44295
   H       -6.47425       -13.61146        -4.06730
   H       -5.18930       -12.41858        -3.86581
   H       -5.90512       -12.68929        -5.45687
   H       -9.12697       -15.92380        -1.93322
   H      -10.90091       -15.92469        -1.86501
   H      -10.93990       -14.13659        -0.46034
   H       -9.11419       -13.28042         0.67818
   H       -7.49241       -15.13284        -1.16897
   H       -3.25853       -14.03061         0.91199
   H       -4.44218       -11.93577         1.99080
   H       -8.39066       -11.64481        -0.84558
   H       -9.16542        -9.19038        -0.24144
   H       -6.03890       -11.33740         3.56163
   H       -4.66754        -9.52646         4.36849
   H       -5.17266        -8.30632         1.60616
   H       -2.21924        -3.98192         1.20051
   H       -0.78334        -3.11632         6.49611
   H       -0.57725        -2.15608         1.63744
   H       -2.42038        -4.88339         6.10152
*
