# ORCA input file
# SCF done       -211.421308927479          0.003550500914
! CAM-B3LYP def2-SVP def2/J RIJCOSX Grid4 TightSCF
%maxcore 5000
%tddft
    Mode sTDDFT
    Ethresh 5.0
    maxcore 5000
end

%pal
  nprocs 6
  end
* xyz 0 1
   C       -0.37868        -7.37491        -0.97391
   N        0.33278        -7.86233        -2.03625
   C        1.52793        -7.21462        -2.01884
   N        2.56103        -7.32654        -2.83557
   C        3.54544        -6.51924        -2.48692
   N        4.75232        -6.32637        -3.06097
   C        5.40621        -5.37335        -2.31048
   N        4.67524        -4.94749        -1.30076
   C        3.50571        -5.61659        -1.35591
   N        2.46060        -5.52580        -0.55601
   C        1.46451        -6.32621        -0.88577
   N        0.25210        -6.47951        -0.28350
   C        6.70597        -4.83816        -2.60153
   C        7.57331        -5.10886        -3.74971
   N        7.45660        -6.06701        -4.80022
   O        8.12590        -5.86984        -5.78975
   O        6.72763        -7.03525        -4.66057
   C        8.65569        -4.29008        -3.73405
   C        8.59343        -3.42294        -2.55182
   C        7.30992        -3.82071        -1.88011
   C        6.96708        -3.05877        -0.73505
   C        6.18221        -3.26611         0.37729
   C        6.30066        -2.14652         1.24035
   C        7.14108        -1.21836         0.67230
   N        7.46646         0.03751         1.21878
   O        8.10178         0.81731         0.52831
   O        7.08359         0.27590         2.34866
   C        7.60277        -1.73950        -0.59411
   C        8.39057        -1.18504        -1.53482
   C        8.62334        -1.89002        -2.83038
   C        9.88388        -1.47144        -3.50455
   C       11.13698        -1.36589        -2.92275
   N       11.46266        -1.58670        -1.58007
   O       12.58087        -1.30645        -1.19891
   O       10.59387        -2.07729        -0.85810
   C       12.10737        -1.00728        -3.92747
   C       11.47428        -0.97716        -5.12163
   C       10.06467        -1.24859        -4.91396
   C        9.09089        -1.21543        -5.91179
   C        7.76426        -0.73769        -5.81540
   C        7.23169        -0.62680        -7.08000
   C        8.17649        -1.09039        -8.02621
   N        7.91491        -1.15133        -9.40215
   O        6.80800        -0.80204        -9.77752
   O        8.80097        -1.53419       -10.15346
   C        9.33391        -1.51261        -7.34205
   C       10.40234        -2.22071        -7.88581
   C       11.30257        -2.99339        -7.17893
   C       12.44767        -3.57463        -7.72866
   C       13.36666        -4.35862        -7.02279
   C       14.43841        -4.69709        -7.86788
   C       14.13266        -4.09303        -9.18030
   C       12.95113        -3.42838        -9.08505
   C       14.91052        -4.18550       -10.34130
   N       15.52957        -4.24759       -11.30692
   C       15.58176        -5.41500        -7.54142
   C       16.69651        -5.69086        -8.35374
   C       17.64964        -6.38352        -7.61394
   C       17.10997        -6.57649        -6.27446
   C       15.87891        -6.00767        -6.21786
   C       15.04753        -6.00603        -5.09215
   N       14.38633        -6.02668        -4.15240
   C       18.91015        -6.79442        -8.08765
   C       19.85748        -7.41867        -7.32500
   C       21.13226        -7.80952        -7.77827
   C       21.70078        -7.69793        -9.04568
   C       22.99856        -8.18744        -9.08126
   C       23.43904        -8.68026        -7.83436
   S       22.24881        -8.54397        -6.62636
   C       24.77209        -9.14120        -7.97890
   C       25.17505        -8.94377        -9.30972
   C       24.08087        -8.34308       -10.04880
   C       24.06035        -7.99545       -11.36801
   C       22.92232        -7.41822       -11.97217
   N       21.99588        -6.95041       -12.45811
   C       25.17456        -8.19176       -12.21218
   N       26.08109        -8.35028       -12.89555
   C       26.49540        -9.37089        -9.53700
   C       27.05675        -9.87223        -8.39933
   S       26.00511        -9.84278        -7.02604
   H       -1.37012        -7.71471        -0.74562
   H        0.04744        -8.55490        -2.71024
   H        5.16357        -6.85908        -3.82240
   H        9.45130        -4.29422        -4.45516
   H        9.43646        -3.60738        -1.87126
   H        5.58414        -4.13228         0.57595
   H        5.80472        -2.03513         2.18688
   H        8.79568        -0.19205        -1.40116
   H        7.77472        -1.68134        -3.48927
   H       13.13947        -0.81170        -3.71348
   H       11.89645        -0.69566        -6.06635
   H        7.29466        -0.36361        -4.92601
   H        6.26323        -0.24163        -7.34047
   H       10.47078        -2.20771        -8.96681
   H       11.12634        -3.18845        -6.12918
   H       13.27498        -4.63487        -5.99044
   H       12.46589        -2.88828        -9.87678
   H       16.80344        -5.39684        -9.37958
   H       17.60131        -7.08810        -5.46773
   H       19.12175        -6.57414        -9.12488
   H       19.64495        -7.62763        -6.28524
   H       21.17968        -7.27992        -9.88732
   H       27.00802        -9.31388       -10.47969
   H       28.04595       -10.26726        -8.27817
*
