# ORCA input file
# SCF done       -185.299347860738          0.000430895349
! CAM-B3LYP def2-SVP def2/J RIJCOSX Grid4 TightSCF
%maxcore 5000
%tddft
    Mode sTDDFT
    Ethresh 5.0
    maxcore 5000
end

%pal
  nprocs 6
  end
* xyz 0 1
   C        4.33168         0.38438        -3.00197
   N        3.25805         0.44360        -3.83025
   C        2.87446        -0.56017        -4.79045
   C        2.25027        -1.77684        -4.11219
   C        2.49189         1.61053        -3.59781
   O        1.48184         1.87599        -4.22378
   C        3.19931         2.28831        -2.54176
   C        4.33491         1.49420        -2.19982
   C        5.05384         2.17197        -1.13666
   O        6.05749         1.88719        -0.52349
   N        4.29977         3.33637        -0.90504
   C        4.71400         4.30912         0.07798
   C        5.41092         5.50823        -0.55986
   C        3.20046         3.42586        -1.73197
   C        2.28987         4.50119        -1.69892
   C        1.19763         4.57914        -2.51697
   C        0.28603         5.65485        -2.50702
   C        0.32300         6.82294        -1.75024
   C       -0.79083         7.62103        -2.06747
   C       -1.55669         6.87988        -3.08459
   C       -0.89933         5.71479        -3.34044
   C       -2.74428         7.29000        -3.69445
   N       -3.72211         7.61286        -4.20704
   C       -1.11499         8.86924        -1.54024
   C       -2.24222         9.65557        -1.82732
   C       -2.18090        10.83957        -1.08930
   C       -0.96334        10.80216        -0.30616
   C       -0.32118         9.62850        -0.56137
   C        0.88985         9.24056         0.02000
   N        1.88493         8.94701         0.51536
   C       -3.12779        11.87535        -1.09026
   C       -3.05684        13.05299        -0.37641
   C       -4.13916        13.91781        -0.53127
   S       -5.34458        13.27511        -1.62105
   C       -4.37213        11.76525        -1.91528
   C       -4.31062        15.16090         0.08194
   C       -5.40898        16.01918        -0.02686
   C       -5.28237        17.17334         0.70807
   C       -4.07644        17.26196         1.41069
   S       -3.09525        15.84383         1.13392
   C       -3.64320        18.30515         2.22979
   S       -4.65610        19.69834         2.53199
   C       -3.39563        20.46954         3.59739
   C       -2.21880        19.54391         3.62571
   C       -2.41478        18.40054         2.88296
   C       -1.05300        19.86841         4.34306
   C        0.12322        19.12442         4.41687
   C        1.05997        19.80964         5.21521
   C        0.39552        21.04390         5.66095
   C       -0.85984        21.06607         5.13367
   C        0.92346        22.03722         6.49144
   N        1.31550        22.87406         7.17491
   C        2.35799        19.42321         5.51507
   C        3.32088        20.13378         6.27164
   C        4.50047        19.41889         6.30830
   C        4.29132        18.19439         5.55816
   C        3.01474        18.18014         5.08138
   C        2.45068        17.15238         4.32392
   N        2.01012        16.29223         3.69971
   C        5.72992        19.79629         6.95906
   C        5.74318        20.84905         7.89581
   C        6.90183        21.23598         8.52626
   C        8.08344        20.57195         8.22311
   C        8.10593        19.51757         7.29043
   C        6.92734        19.13704         6.66990
   C        9.43234        18.97601         7.12513
   C       10.37142        19.63260         7.93737
   S        9.65179        20.90801         8.90175
   C       11.70854        19.27423         7.93921
   C       12.11269        18.24168         7.11405
   C       11.19648        17.58027         6.30264
   C        9.86371        17.93958         6.30322
   H        5.02306        -0.43662        -3.04558
   H        3.75334        -0.85650        -5.37093
   H        2.14607        -0.08905        -5.45596
   H        2.95703        -2.23969        -3.42686
   H        1.95956        -2.50826        -4.86094
   H        1.36648        -1.48019        -3.55275
   H        5.41270         3.78878         0.73924
   H        3.84796         4.62998         0.66350
   H        6.29878         5.18044        -1.09508
   H        5.70831         6.21183         0.21248
   H        4.75260         6.01815        -1.25944
   H        2.47297         5.29296        -0.98805
   H        1.00791         3.77844        -3.21979
   H        1.07556         7.09106        -1.03633
   H       -1.19240         4.95063        -4.03632
   H       -3.02339         9.38110        -2.50772
   H       -0.62894        11.57024         0.36543
   H       -2.23491        13.31369         0.26800
   H       -4.15465        11.69800        -2.98253
   H       -4.97875        10.90326        -1.63355
   H       -6.26007        15.76882        -0.63512
   H       -6.01989        17.95501         0.75565
   H       -3.83089        20.61573         4.58763
   H       -3.14519        21.44537         3.17797
   H       -1.68001        17.61919         2.79150
   H        0.30304        18.18443         3.93572
   H       -1.59065        21.84003         5.28094
   H        3.14517        21.09555         6.70998
   H        5.01223        17.41005         5.42173
   H        4.82113        21.35431         8.13384
   H        6.90002        22.04015         9.24542
   H        6.95003        18.33887         5.94506
   H       12.41217        19.79260         8.57172
   H       13.15083        17.94647         7.10004
   H       11.53361        16.77667         5.66549
   H        9.15682        17.42349         5.67153
*
