# ORCA input file
# SCF done       -266.950911162941          0.000954411864
! CAM-B3LYP def2-SVP def2/J RIJCOSX Grid4 TightSCF
%maxcore 5000
%tddft
    Mode sTDDFT
    Ethresh 5.0
    maxcore 5000
end

%pal
  nprocs 6
  end
* xyz 0 1
   C        5.64270         6.29216         4.39510
   C        5.01829         6.86280         5.46914
   F        3.90557         7.59473         5.27621
   C        5.49205         6.71587         6.77979
   C        6.62086         5.97530         6.99530
   C        7.30451         5.36439         5.92428
   C        6.80728         5.52671         4.59843
   C        7.47981         4.92902         3.50652
   C        8.60910         4.19121         3.73643
   C        9.09203         4.02017         5.06566
   C        8.46811         4.59153         6.13648
   C       10.28564         3.15411         5.04094
   O       10.99081         2.83155         5.96975
   C       10.41425         2.70327         3.62702
   C        9.51314         3.49549         2.82202
   C        9.62627         3.75521         1.47980
   C       10.68080         3.27468         0.67923
   N       11.53891         2.93326        -0.00254
   C        8.75175         4.59805         0.76569
   N        8.05408         5.25493         0.13283
   C       11.22082         1.63708         3.36086
   C       11.24544         0.77103         2.24539
   C       10.30076         0.54202         1.27591
   C       10.64277        -0.47653         0.36914
   C       11.91016        -1.06008         0.64354
   S       12.61308        -0.31049         2.05926
   C       12.41460        -2.08035        -0.14559
   O       13.59336        -2.74027        -0.03409
   C       14.54427        -2.33646         0.92371
   C       11.59384        -2.51797        -1.20693
   C       10.33506        -1.92652        -1.48978
   C        9.83638        -0.89128        -0.71664
   O        8.67037        -0.21715        -0.84332
   C        7.83326        -0.44607        -1.95342
   S        9.59450        -2.72465        -2.86636
   C       10.94337        -3.82852        -3.01693
   C       11.90456        -3.58424        -2.08214
   C       10.91386        -4.85782        -4.00135
   C        9.97623        -5.05564        -4.97203
   C       10.19953        -6.21787        -5.74950
   C        9.43353        -6.70116        -6.82896
   C        8.22021        -6.02763        -7.24810
   C        7.22974        -5.50979        -6.46487
   C        6.19533        -4.91451        -7.21951
   C        6.38063        -4.96407        -8.57004
   S        7.86618        -5.77560        -8.93519
   C        5.50636        -4.44209        -9.65051
  Cl        4.82099        -4.18742        -6.47656
   C        9.88969        -7.85956        -7.44644
   C       11.05132        -8.55542        -7.02991
   C       11.83507        -8.05542        -5.97040
   C       11.37143        -6.90416        -5.34476
   S       12.15088        -6.09714        -4.01180
   C       13.06057        -8.71901        -5.57521
   C       14.01708        -9.25996        -6.38573
   C       15.08323        -9.83481        -5.66065
   C       14.95585        -9.74761        -4.30502
   S       13.48702        -8.92545        -3.89858
   C       15.87286       -10.24616        -3.24934
  Cl       16.42601       -10.58052        -6.44064
   C       11.22627        -9.76260        -7.74820
   C       10.26485        -9.98552        -8.69004
   S        9.08331        -8.69424        -8.74669
   C       10.14064       -11.11654        -9.54803
   C        9.19387       -11.33839       -10.50805
   C        9.33778       -12.58595       -11.15656
   C       10.43388       -13.31575       -10.65771
   S       11.27638       -12.44632        -9.41116
   C       10.78907       -14.57675       -11.11342
   O       11.88312       -15.12146       -10.52542
   C       12.69030       -16.06195       -11.19954
   C        9.95316       -15.14277       -12.09869
   C        8.85877       -14.38609       -12.63597
   C        8.53938       -13.11196       -12.19662
   O        7.54964       -12.28471       -12.61130
   C        6.73487       -12.62070       -13.71017
   S        8.00256       -15.33110       -13.83803
   C        9.06704       -16.69845       -13.61226
   C       10.02194       -16.43296       -12.66187
   C        8.79634       -17.89816       -14.30800
   C        9.56437       -19.01482       -14.45801
   C        8.89143       -20.29410       -14.82239
   O        7.76581       -20.42364       -15.24517
   C        9.86825       -21.35151       -14.49846
   C        9.70839       -22.70661       -14.52096
   C       10.78307       -23.53409       -14.12399
   C       12.00785       -22.93618       -13.70661
   C       13.07030       -23.76634       -13.30018
   C       12.90600       -25.12356       -13.31770
   C       11.71131       -25.73070       -13.72766
   C       10.66934       -24.93931       -14.12440
   F       13.91953       -25.91789       -12.92875
   C       12.14906       -21.52855       -13.70496
   C       11.09621       -20.74910       -14.10016
   C       10.96052       -19.29957       -14.22279
   C       12.00818       -18.42003       -14.33554
   C       11.85471       -17.07252       -14.71333
   N       11.78072       -15.97223       -15.03321
   C       13.35825       -18.77283       -14.14395
   N       14.47097       -18.99227       -13.96522
   H        5.25111         6.42971         3.39931
   H        4.95712         7.18906         7.58789
   H        7.00554         5.84738         7.99593
   H        7.07692         5.06245         2.51498
   H        8.85652         4.45462         7.13453
   H       11.89237         1.37129         4.17260
   H        9.35112         1.04272         1.23043
   H       14.17997        -2.48324         1.94381
   H       14.83694        -1.29266         0.78618
   H       15.40844        -2.97774         0.75551
   H        8.35801        -0.26996        -2.89541
   H        7.02162         0.27331        -1.85376
   H        7.42157        -1.45867        -1.94729
   H       12.81303        -4.15289        -2.00492
   H        9.16127        -4.37379        -5.13271
   H        7.20715        -5.58368        -5.39345
   H        5.11910        -5.25974       -10.25794
   H        6.06300        -3.77325       -10.30522
   H        4.67019        -3.89979        -9.21657
   H       13.99189        -9.21693        -7.45878
   H       16.75038       -10.69456        -3.70828
   H       15.37635       -10.99379        -2.63137
   H       16.18849        -9.43069        -2.59981
   H       12.01506       -10.46657        -7.55594
   H        8.41338       -10.63879       -10.74527
   H       12.69915       -15.89086       -12.27802
   H       12.37221       -17.08613       -10.98023
   H       13.69771       -15.92278       -10.80589
   H        7.32593       -12.80879       -14.60971
   H        6.10319       -11.74808       -13.87193
   H        6.10236       -13.48648       -13.49789
   H       10.70081       -17.19297       -12.32529
   H        7.79502       -17.98341       -14.72017
   H        8.77238       -23.14338       -14.83522
   H       14.00592       -23.33357       -12.98205
   H       11.63993       -26.80674       -13.72078
   H        9.73888       -25.38386       -14.44398
   H       13.08490       -21.10232       -13.37917
*
