# ORCA input file
# SCF done       -230.388348174106          0.000591631696
! CAM-B3LYP def2-SVP def2/J RIJCOSX Grid4 TightSCF
%maxcore 5000
%tddft
    Mode sTDDFT
    Ethresh 5.0
    maxcore 5000
end

%pal
  nprocs 6
  end
* xyz 0 1
   C        4.56499         2.43550       -11.81350
   C        3.72642         3.31855       -12.43503
   F        3.72343         3.39642       -13.77775
   C        2.85833         4.15846       -11.72397
   C        2.84643         4.09424       -10.35842
   C        3.69006         3.20168        -9.66572
   C        4.56502         2.35507       -10.40749
   C        5.41596         1.44625        -9.73597
   C        5.39041         1.39022        -8.36913
   C        4.52774         2.25167        -7.63182
   C        3.69179         3.13329        -8.25445
   C        4.73349         2.02608        -6.18966
   O        4.14521         2.53197        -5.26150
   C        5.87836         1.07483        -6.10122
   C        6.12426         0.54932        -7.42631
   C        6.70449        -0.65272        -7.74091
   C        7.20710        -1.55727        -6.78647
   N        7.60691        -2.33412        -6.04113
   C        6.77828        -1.17004        -9.05120
   N        6.85607        -1.64141       -10.09445
   C        6.51051         0.92341        -4.90271
   C        7.80423         0.42476        -4.64501
   C        8.87800         0.29625        -5.51537
   C       10.01213        -0.19364        -4.88370
   C        9.81103        -0.44891        -3.51079
   S        8.23580        -0.05448        -3.00512
   C       11.01569        -0.96432        -2.97304
   C       11.97553        -1.03059        -3.99829
   C       11.37271        -0.55893        -5.23492
   C       11.94484        -0.49644        -6.47173
   C       13.28113        -0.88465        -6.70205
   N       14.37050        -1.19379        -6.88172
   C       11.22273        -0.03442        -7.59235
   N       10.62359         0.34921        -8.49165
   C       13.20404        -1.52397        -3.56183
   C       13.18571        -1.83888        -2.21576
   S       11.62647        -1.51951        -1.47558
   C       14.25620        -2.36247        -1.44346
   C       14.24575        -2.76094        -0.13671
   C       15.49078        -3.24448         0.32163
   C       16.49797        -3.20257        -0.67752
   S       15.83516        -2.56441        -2.17118
   C       17.79017        -3.63003        -0.41700
   O       18.86290        -3.65249        -1.24012
   C       18.75727        -3.19290        -2.56821
   C       18.03769        -4.11855         0.88570
   C       17.02604        -4.17591         1.87980
   C       15.73850        -3.73450         1.62358
   O       14.66567        -3.70684         2.45027
   C       14.77843        -4.16426         3.77768
   S       17.68101        -4.86404         3.35465
   C       19.26252        -5.05296         2.63127
   C       19.28167        -4.60996         1.33763
   C       20.33037        -5.62789         3.37269
   C       21.65296        -5.74400         2.98063
   C       22.42478        -6.39112         3.94330
   C       21.68467        -6.77316         5.07732
   S       20.04123        -6.32093         4.95715
   C       22.54813        -7.43783         5.98080
   C       23.84026        -7.47310         5.41429
   C       23.80725        -6.80451         4.12657
   C       24.86251        -6.58881         3.28882
   C       26.16095        -7.03476         3.61366
   N       27.20872        -7.40815         3.89257
   C       24.71937        -5.91529         2.05826
   N       24.59587        -5.37397         1.05504
   C       24.77184        -8.10061         6.22850
   C       24.21477        -8.55050         7.41786
   S       22.48956        -8.19874         7.50099
   C       24.82547        -9.26979         8.46522
   C       26.15385        -9.42074         8.73420
   C       26.58545       -10.57303         9.57613
   O       25.87107       -11.28006        10.24945
   C       28.03858       -10.69027         9.35615
   C       28.89892       -11.65963         9.78481
   C       30.25959       -11.58739         9.41080
   C       30.70234       -10.51009         8.58867
   C       32.05732       -10.45155         8.20935
   C       32.91716       -11.42348         8.63974
   C       32.50221       -12.48899         9.45032
   C       31.18979       -12.56227         9.82612
   F       34.21210       -11.36924         8.27990
   C       29.79020        -9.51486         8.16606
   C       28.48062        -9.59996         8.55261
   C       27.34131        -8.72324         8.29214
   C       27.43819        -7.40002         7.94530
   C       26.34415        -6.51455         7.91763
   N       25.48120        -5.75699         7.90310
   C       28.65888        -6.74840         7.67146
   N       29.62414        -6.16978         7.44787
   H        5.21820         1.80181       -12.39271
   H        2.22008         4.83590       -12.26876
   H        2.18638         4.73129        -9.78913
   H        6.07747         0.82624       -10.31999
   H        3.04040         3.77276        -7.67779
   H        5.96410         1.30911        -4.04722
   H        8.83329         0.59414        -6.54706
   H       14.07584        -1.65675        -4.17721
   H       13.37397        -2.72106         0.49064
   H       19.75280        -3.31538        -2.99227
   H       18.47518        -2.13794        -2.60978
   H       18.04400        -3.78607        -3.14592
   H       13.78970        -4.02598         4.21286
   H       15.50713        -3.58058         4.34603
   H       15.04530        -5.22338         3.81940
   H       20.14796        -4.63738         0.70423
   H       22.02340        -5.37089         2.04414
   H       25.79803        -8.27423         5.96082
   H       24.16280        -9.84726         9.10274
   H       28.54597       -12.47417        10.39939
   H       32.41199        -9.64367         7.58866
   H       33.22594       -13.22666         9.75877
   H       30.84649       -13.37407        10.44961
   H       30.14768        -8.71706         7.53451
*
