# ORCA input file
# SCF done       -160.839498566567          0.000828704380
! CAM-B3LYP def2-SVP def2/J RIJCOSX Grid4 TightSCF
%maxcore 5000
%tddft
    Mode sTDDFT
    Ethresh 5.0
    maxcore 5000
end

%pal
  nprocs 6
  end
* xyz 0 1
   C       -4.05762         2.78134         3.49969
   C       -3.88967         2.92913         4.86856
   C       -3.49517         1.86148         5.66282
   C       -3.24578         0.61463         5.10917
   C       -3.40654         0.45702         3.74284
   C       -3.82145         1.53852         2.93320
   C       -3.94068         1.07700         1.55648
   C       -4.16739         1.86628         0.46172
   C       -4.32447         3.26811         0.51887
   N       -4.46025         4.40729         0.49179
   C       -4.22851         1.41598        -0.87431
   N       -4.28681         1.12149        -1.98266
   C       -3.76704        -0.37348         1.58426
   C       -3.20621        -0.70462         2.89092
   C       -2.40066        -1.77003         3.18846
   C       -2.02300        -2.76211         2.26077
   N       -1.66081        -3.57550         1.53619
   C       -1.76792        -1.95181         4.43736
   N       -1.21865        -2.14485         5.42568
   C       -4.18694        -1.20946         0.58715
   C       -4.44958        -2.59373         0.66846
   C       -4.69812        -3.38261         1.78545
   C       -4.97409        -4.69787         1.44679
   C       -4.95200        -4.92642         0.05410
   S       -4.60065        -3.51453        -0.82531
   C       -5.24680        -6.29259        -0.18042
   C       -5.44595        -6.92567         1.06574
   C       -5.26912        -5.94938         2.12497
   C       -5.33303        -6.14895         3.47348
   C       -5.61594        -7.40867         4.04190
   N       -5.85867        -8.42795         4.50708
   C       -5.11347        -5.08972         4.37915
   N       -4.93722        -4.21378         5.09827
   C       -5.75917        -8.27689         0.93849
   C       -5.80094        -8.65981        -0.38882
   S       -5.44386        -7.35743        -1.49951
   C       -6.11311        -9.94266        -0.92878
   N       -6.09340       -10.06640        -2.24836
   N       -6.42549       -11.15899        -2.86183
   C       -6.77861       -12.26381        -2.22820
   C       -6.76842       -12.28962        -0.80607
   C       -6.44481       -11.06911        -0.12615
   N       -6.49040       -11.20217         1.19595
   S       -6.88564       -12.72503         1.54097
   N       -7.02166       -13.27959         0.04304
   C       -7.16849       -13.40632        -3.02861
   C       -6.83863       -13.48941        -4.39460
   N       -7.30414       -14.44893        -5.15278
   C       -8.04178       -15.40723        -4.58195
   C       -8.23874       -15.40069        -3.18699
   N       -7.84663       -14.39660        -2.44374
   C       -8.60954       -16.42896        -5.41376
   C       -8.40266       -16.66473        -6.78046
   C       -9.19661       -17.80175        -7.11220
   C       -9.82869       -18.17203        -5.89080
   N       -9.46829       -17.35215        -4.89640
   O      -10.66145       -19.17696        -5.73530
   C      -11.17802       -19.36468        -4.42726
   C       -8.99031       -18.03184        -8.47365
   N       -8.14031       -17.13550        -8.99769
   C       -7.76711       -16.29951        -8.00478
   O       -6.93830       -15.30592        -8.17233
   C       -6.42572       -15.11759        -9.48145
   H       -4.37389         3.61956         2.90102
   H       -4.07630         3.89086         5.32132
   H       -3.38307         1.99990         6.72715
   H       -2.95195        -0.21186         5.73562
   H       -4.42016        -0.76335        -0.37053
   H       -4.72134        -2.99445         2.78734
   H       -5.95456        -8.96269         1.74319
   H       -6.20612       -12.74537        -4.85599
   H       -8.75536       -16.21488        -2.70133
   H      -11.86861       -20.20259        -4.49154
   H      -11.69412       -18.46394        -4.09017
   H      -10.36950       -19.58637        -3.72812
   H       -9.41118       -18.79592        -9.10176
   H       -5.75379       -14.26421        -9.42337
   H       -7.23840       -14.92114       -10.18328
   H       -5.89050       -16.00950        -9.81275
*
