# ORCA input file
# SCF done       -200.772422022783          0.000563782024
! CAM-B3LYP def2-SVP def2/J RIJCOSX Grid4 TightSCF
%maxcore 5000
%tddft
    Mode sTDDFT
    Ethresh 5.0
    maxcore 5000
end

%pal
  nprocs 6
  end
* xyz 0 1
   C       -9.67803        13.16385         1.36364
   C       -8.92969        13.61599         0.31992
   C       -7.72107        12.90180         0.20834
   C       -7.59398        11.91188         1.19218
   S       -8.94136        11.86240         2.23962
   C       -6.35426        11.24153         1.00459
   C       -5.70184        11.81324        -0.09737
   C       -6.54285        12.87781        -0.63511
   C       -6.26892        13.67324        -1.70977
   C       -5.07610        13.54414        -2.45104
   N       -4.10571        13.43856        -3.05323
   C       -7.15919        14.67379        -2.15227
   N       -7.88067        15.48721        -2.51611
   C       -4.47210        11.21814        -0.37133
   C       -4.18306        10.19043         0.51021
   S       -5.45955         9.96907         1.70557
   C       -3.02778         9.35811         0.53267
   C       -2.89482         8.31301         1.41934
   C       -1.79760         7.46269         1.49923
   C       -0.70402         7.56697         0.52600
   C       -0.62006         8.52551        -0.42296
   S       -1.78785         9.76209        -0.64399
   C        0.16657         6.47708         0.80991
   C       -0.33623         5.74448         1.88328
   C        0.48767         4.64663         2.21250
   C        1.57039         4.57482         1.39422
   S        1.63734         5.82966         0.20265
   C       -1.55221         6.36012         2.35537
   C       -2.26919         5.87838         3.46512
   C       -3.23927         6.55270         4.15484
   C       -4.00957         6.07327         5.23627
   C       -3.96238         4.77284         5.81617
   C       -4.78692         4.43612         6.94044
   N       -4.71881         3.20572         7.47872
   C       -3.89963         2.32741         6.96882
   C       -3.09811         2.65573         5.86280
   N       -3.13673         3.84015         5.31002
   C       -5.69602         5.34012         7.54245
   C       -5.77406         6.61936         6.95007
   C       -4.94668         6.96493         5.82142
   N       -5.17759         8.21088         5.40363
   S       -6.30943         8.87661         6.32939
   N       -6.56760         7.62962         7.30767
   C       -6.46273         4.94709         8.66627
   C       -7.36816         5.73233         9.37422
   C       -7.94162         5.03827        10.42813
   C       -7.47768         3.70760        10.52528
   S       -6.32168         3.32486         9.31293
   C       -8.12196         3.09538        11.61934
   C       -8.98745         4.03762        12.22639
   C       -8.90463         5.28468        11.48958
   C       -9.60362         6.43020        11.73824
   C      -10.51337         6.51522        12.81278
   N      -11.24228         6.57369        13.69652
   C       -9.46051         7.59271        10.95312
   N       -9.34721         8.54565        10.32529
   C       -9.68377         3.52034        13.30536
   C       -9.37762         2.18386        13.54224
   S       -8.16692         1.58617        12.40304
   C       -9.84008         1.32437        14.55226
   C      -10.90246         1.47044        15.40098
   C      -10.91318         0.67403        16.65769
   O      -10.18999        -0.25902        16.92788
   C      -11.94321         1.30017        17.50756
   C      -12.26698         1.03283        18.80597
   C      -13.27128         1.80076        19.43732
   C      -13.91601         2.84182        18.70800
   C      -14.90601         3.61212        19.34817
   C      -15.22978         3.34231        20.64869
   C      -14.61034         2.32107        21.38146
   C      -13.64502         1.56545        20.77613
   F      -16.17681         4.07640        21.26223
   C      -13.56638         3.08984        17.35945
   C      -12.60160         2.32278        16.76633
   C      -12.06334         2.32867        15.40654
   C      -12.71650         2.84438        14.31484
   C      -12.31051         2.62828        12.98494
   N      -12.02693         2.45078        11.88615
   C      -13.92964         3.55862        14.39174
   N      -14.91938         4.13976        14.39712
   H      -10.63751        13.51664         1.68496
   H       -9.23317        14.41620        -0.32994
   H       -3.81362        11.50416        -1.17166
   H       -3.73494         8.14045         2.07607
   H        0.20437         8.58462        -1.11582
   H        0.29356         3.94772         3.00533
   H        2.35932         3.84846         1.40990
   H       -1.99687         4.89348         3.81720
   H       -3.45076         7.58403         3.91319
   H       -3.87744         1.35039         7.43008
   H       -2.42185         1.93705         5.42035
   H       -7.56935         6.75239         9.10263
   H      -10.34782         4.08730        13.93181
   H       -9.22891         0.44804        14.74800
   H      -11.76189         0.24672        19.34701
   H      -15.40627         4.40425        18.81336
   H      -14.90746         2.15410        22.40468
   H      -13.15265         0.77339        21.32016
   H      -14.06259         3.89002        16.83355
*
