# ORCA input file
# SCF done       -216.176009024792          0.000427942322
! CAM-B3LYP def2-SVP def2/J RIJCOSX Grid4 TightSCF
%maxcore 5000
%tddft
    Mode sTDDFT
    Ethresh 5.0
    maxcore 5000
end

%pal
  nprocs 6
  end
* xyz 0 1
   C        0.96786         0.88061        -1.16676
   C       -0.33188         0.98414        -1.59027
   C       -0.90389         0.15051        -2.57466
   N       -1.41907        -0.50348        -3.36410
   C       -1.27359         1.86723        -1.02921
   N       -2.07549         2.55870        -0.58464
   C        1.89329        -0.17449        -1.56685
   C        2.92243        -0.27399        -0.58495
   C        3.91458        -1.20725        -0.67792
   C        3.92990        -2.08811        -1.78272
   C        2.91696        -1.97788        -2.77937
   C        1.89655        -1.00723        -2.65300
   C        2.95149        -2.85477        -3.88244
   C        3.93546        -3.79901        -3.99538
   C        4.93055        -3.90867        -3.01258
   C        4.92780        -3.07164        -1.92982
   C        2.71913         0.76388         0.43815
   O        3.35140         0.95784         1.45034
   C        1.58326         1.59486        -0.06695
   C        1.39075         2.82458         0.48118
   C        0.66938         3.92602        -0.03333
   C        0.26650         4.17553        -1.33685
   C       -0.40083         5.38798        -1.45701
   C       -0.50264         6.08141        -0.23584
   S        0.23630         5.24462         1.04739
   C       -1.21107         7.28849        -0.46826
   C       -1.56191         7.35307        -1.82762
   C       -1.07350         6.15525        -2.49222
   C       -1.23230         5.79912        -3.79855
   C       -1.91544         6.61472        -4.72553
   N       -2.46453         7.28094        -5.47944
   C       -0.71352         4.58471        -4.29683
   N       -0.28075         3.59792        -4.68868
   C       -2.26123         8.51623        -2.15286
   C       -2.43956         9.33443        -1.05512
   S       -1.73941         8.65513         0.40560
   C       -3.08108        10.60360        -1.01401
   C       -3.22971        11.41887         0.07393
   C       -3.88732        12.63470        -0.22217
   C       -4.23001        13.71454         0.61273
   C       -4.88188        14.79937        -0.00109
   C       -5.20222        14.70710        -1.38055
   N       -4.91223        13.69022        -2.16112
   C       -4.26174        12.69873        -1.59363
   S       -3.77324        11.29023        -2.47468
   S       -6.01323        16.12277        -1.98860
   C       -5.86629        16.86170        -0.41950
   C       -5.26421        16.07723         0.50898
   F       -5.00745        16.49992         1.75569
   F       -6.31376        18.09539        -0.23013
   C       -3.95462        13.71040         2.03309
   C       -4.81419        14.09004         3.03797
   C       -4.22489        13.98368         4.30125
   C       -2.90342        13.51655         4.24575
   S       -2.39414        13.19648         2.64917
   C       -2.38560        13.45820         5.56543
   C       -3.38399        13.90485         6.45540
   C       -4.57925        14.22846         5.69013
   C       -5.78477        14.64718         6.16768
   C       -6.04891        14.81380         7.54508
   N       -6.29845        14.93609         8.65681
   C       -6.87603        14.90668         5.30977
   N       -7.76668        15.10502         4.61589
   C       -2.96662        13.91940         7.78083
   C       -1.65749        13.48016         7.92070
   S       -0.95144        13.02395         6.36557
   C       -0.84993        13.27833         9.06100
   C       -0.99402        13.77401        10.32526
   C       -0.15721        13.39817        11.45271
   C        0.64111        12.28672        11.53700
   C        1.41222        11.95478        12.67078
   N        2.06623        11.63270        13.55750
   C        0.77530        11.30339        10.53458
   N        0.91779        10.45533         9.77308
   C       -0.39040        14.35805        12.52314
   C       -1.40892        15.26053        12.10484
   C       -1.85213        14.91474        10.74445
   O       -2.69655        15.49372        10.09565
   C       -1.85003        16.27444        12.90544
   C       -1.27990        16.43535        14.18794
   C       -0.25552        15.54015        14.61260
   C        0.18049        14.49970        13.76046
   C        0.30892        15.71292        15.89282
   C       -0.11732        16.71982        16.71564
   C       -1.12589        17.60032        16.29653
   C       -1.69530        17.46080        15.05980
   H        4.68006        -1.27210         0.08097
   H        1.14887        -0.93619        -3.42744
   H        2.18142        -2.76851        -4.63472
   H        3.95217        -4.46746        -4.84304
   H        5.69964        -4.65912        -3.11783
   H        5.69171        -3.15098        -1.17026
   H        1.92423         2.99550         1.41172
   H        0.49410         3.51922        -2.15669
   H       -2.62542         8.77134        -3.13174
   H       -2.87432        11.14259         1.05022
   H       -5.82593        14.40507         2.86050
   H       -3.56851        14.23290         8.61308
   H        0.01714        12.65468         8.87449
   H       -2.62602        16.94334        12.56410
   H        0.96270        13.84353        14.10779
   H        1.08406        15.03164        16.21175
   H        0.32055        16.84317        17.69480
   H       -1.44934        18.38968        16.95837
   H       -2.47241        18.13535        14.73153
*
