# ORCA input file
# SCF done       -181.648182795075          0.000776414595
! CAM-B3LYP def2-SVP def2/J RIJCOSX Grid4 TightSCF
%maxcore 5000
%tddft
    Mode sTDDFT
    Ethresh 5.0
    maxcore 5000
end

%pal
  nprocs 6
  end
* xyz 0 1
   C        8.12709         6.51192        -0.52342
   N        7.92537         7.75360        -0.20794
   C        6.78312         7.76067         0.54266
   C        6.26252         6.39268         0.71009
   C        5.00802         6.41547         1.47769
   O        4.30096         5.48248         1.80076
   C        4.81230         7.84798         1.74547
   C        5.93294         8.63325         1.15983
   N        5.74604         9.95913         1.38841
   C        4.61924        10.04087         2.04345
   C        3.97462         8.75647         2.29599
   C        7.12484         5.57644         0.01079
   C        7.10802         4.17442        -0.21940
   C        6.23191         3.34738         0.40765
   C        6.15674         1.95549         0.13578
   N        7.07335         1.35515        -0.61246
   C        6.75581         0.04679        -0.62405
   C        5.55312        -0.21044         0.17674
   C        5.21433        -1.64366         0.17260
   O        4.29474        -2.20164         0.72666
   C        6.28148        -2.21639        -0.67383
   C        7.19790        -1.14894        -1.13770
   N        8.17509        -1.66529        -1.92194
   C        7.92775        -2.95063        -1.97556
   C        6.75705        -3.36227        -1.22147
   C        5.13268         1.00486         0.65563
   C        3.97856         1.21296         1.46235
   C        3.37731         2.38947         1.75737
   C        2.25136         2.52791         2.60627
   C        1.72613         3.74104         3.03567
   C        0.64531         3.56593         3.89222
   C        0.33788         2.20396         4.10142
   S        1.38634         1.15042         3.26368
   C       -0.76787         2.12066         4.97166
   C       -1.16829         3.43214         5.32994
   C       -0.28714         4.37819         4.65946
   C       -0.32569         5.73847         4.74106
   C        0.58587         6.57629         4.06651
   N        1.31708         7.28883         3.54414
   C       -1.28637         6.42403         5.51805
   N       -2.05899         7.00100         6.13710
   C       -2.24665         3.43924         6.19775
   C       -2.69216         2.14950         6.49646
   S       -1.72870         0.91921         5.68655
   C       -3.75911         1.86456         7.37353
   N       -4.31157         2.85727         8.07209
   C       -5.25056         2.29401         8.84322
   C       -5.31894         0.84069         8.63378
   C       -6.35542         0.23808         9.49502
   O       -6.66819        -0.93056         9.58517
   C       -6.89285         1.40226        10.20953
   C       -6.19445         2.63642         9.78902
   N       -6.68773         3.70995        10.44136
   C       -7.63212         3.23417        11.22340
   C       -7.81367         1.80420        11.12680
   C       -4.37790         0.54729         7.67581
   C       -4.06847        -0.68835         7.05514
   C       -4.59978        -1.89126         7.39701
   C       -4.20003        -3.05370         6.68675
   N       -3.30566        -2.98020         5.70318
   C       -3.14797        -4.23457         5.25546
   C       -3.99817        -5.18526         6.00275
   C       -3.79888        -6.55216         5.48986
   O       -4.31947        -7.58396         5.85400
   C       -2.80338        -6.35692         4.41769
   C       -2.43685        -4.93028         4.31077
   N       -1.52223        -4.74283         3.32748
   C       -1.30443        -5.93608         2.83122
   C       -2.07123        -6.98978         3.46517
   C       -4.68003        -4.43744         6.92346
   C       -5.64720        -4.81117         7.91830
   C       -6.04862        -6.06832         8.11077
   H        8.97318         6.22565        -1.12421
   H        4.23886        10.99910         2.35275
   H        3.04307         8.60809         2.80606
   H        7.80637         3.76315        -0.93495
   H        5.56559         3.75918         1.14767
   H        8.56924        -3.60417        -2.54098
   H        6.38872        -4.36580        -1.14188
   H        3.54416         0.29564         1.84686
   H        3.73082         3.32698         1.35958
   H        2.15219         4.68183         2.73569
   H       -2.72852         4.30194         6.62094
   H       -8.18991         3.89636        11.86242
   H       -8.52919         1.22594        11.67697
   H       -3.36886        -0.69650         6.23221
   H       -5.31712        -1.97762         8.20016
   H       -0.60487        -6.06791         2.02394
   H       -2.03548        -8.02924         3.20557
   H       -6.05064        -4.01001         8.52275
   H       -5.66150        -6.88296         7.52114
   H       -6.77494        -6.31262         8.86687
*
