# ORCA input file
# SCF done       -210.610128361079          0.000688915308
! CAM-B3LYP def2-SVP def2/J RIJCOSX Grid4 TightSCF
%maxcore 5000
%tddft
    Mode sTDDFT
    Ethresh 5.0
    maxcore 5000
end

%pal
  nprocs 6
  end
* xyz 0 1
   C        3.01730        -3.25897         9.29574
   C        2.84997        -1.98883         9.83994
   C        1.50123        -1.34575         9.79917
   C        3.93527        -1.31608        10.42537
   C        3.74875         0.04173        11.02176
   C        5.18965        -1.91728        10.44862
   C        5.35143        -3.17382         9.90046
   C        4.26383        -3.85844         9.32731
   C        4.71477        -5.17334         8.88819
   C        3.91632        -6.27476         8.72670
   C        2.50816        -6.23211         8.76446
   N        1.36051        -6.24360         8.76722
   C        4.42439        -7.58359         8.59574
   N        4.80592        -8.66403         8.52438
   C        6.16228        -5.17095         8.96142
   C        6.56907        -3.99529         9.79042
   O        7.67584        -3.76483        10.21755
   C        7.11598        -5.92612         8.35826
   C        7.00670        -6.79059         7.24170
   C        7.93254        -7.75270         6.86836
   C        7.56916        -8.41199         5.69839
   C        6.36848        -7.91740         5.14842
   S        5.69238        -6.65998         6.07524
   C        6.07500        -8.64197         3.97444
   C        7.08529        -9.60643         3.77227
   C        8.07477        -9.46569         4.83378
   C        9.25530       -10.13446         4.95699
   C        9.72182       -11.05589         3.99273
   N       10.14818       -11.76472         3.19999
   C       10.13596        -9.89959         6.03566
   N       10.85561        -9.71076         6.90766
   C        6.85423       -10.41458         2.66706
   C        5.67756       -10.06158         2.01278
   S        4.85640        -8.70972         2.78232
   C        5.12566       -10.68169         0.87758
   C        5.56595       -11.85686         0.25044
   C        4.75796       -12.22744        -0.88042
   N        5.07929       -13.27637        -1.64041
   C        6.12161       -13.98681        -1.27163
   C        6.53528       -15.09846        -2.16823
   O        6.03754       -15.27536        -3.25793
   C        7.62473       -15.94268        -1.64535
   C        8.25497       -15.70939        -0.48975
   C        7.92482       -14.59124         0.41296
   O        8.46430       -14.43802         1.48583
   C        6.85019       -13.68802        -0.07797
   N        6.58493       -12.62345         0.64571
   C        3.67925       -11.35625        -1.09528
   S        3.71380       -10.07296         0.07140
   C        2.67304       -11.47784        -2.07045
   C        2.44531       -12.57947        -2.88897
   C        1.33674       -12.38991        -3.70277
   C        0.72891       -11.12764        -3.52932
   S        1.50510       -10.18921        -2.33479
   C       -0.37823       -11.03116        -4.40155
   C       -0.48048       -12.23661        -5.12615
   C        0.57014       -13.13907        -4.68845
   C        0.72319       -14.44363        -5.05206
   C       -0.13966       -15.04261        -5.99537
   N       -0.84698       -15.51204        -6.76620
   C        1.69602       -15.29428        -4.48241
   N        2.45347       -16.01417        -4.01246
   C       -1.57977       -12.26230        -5.97545
   C       -2.32183       -11.09335        -5.90878
   S       -1.61409        -9.92872        -4.79836
   C       -3.50206       -10.75468        -6.61327
   C       -4.40983       -11.58905        -7.18292
   C       -5.35319       -11.04055        -8.20632
   O       -5.55859        -9.87079        -8.43378
   C       -5.90940       -12.22151        -8.88326
   C       -5.45732       -13.38968        -8.24230
   C       -5.83078       -14.62758        -8.73501
   C       -6.66390       -14.70366        -9.84751
   C       -7.12885       -13.53394       -10.47127
   C       -6.74031       -12.29050        -9.98369
   C       -8.03556       -13.61968       -11.65634
   C       -7.06340       -16.04472       -10.37227
   C       -4.64953       -13.01634        -7.08626
   C       -4.41235       -13.82156        -6.00364
   C       -3.84327       -13.38051        -4.79326
   N       -3.41448       -13.06841        -3.77462
   C       -4.80641       -15.17500        -5.93235
   N       -5.10897       -16.27568        -5.81804
   H        2.17423        -3.75822         8.84416
   H        0.77738        -1.99718         9.31764
   H        1.54214        -0.40394         9.25285
   H        1.15307        -1.12537        10.80759
   H        3.00682         0.01124        11.81897
   H        3.39302         0.74486        10.26926
   H        4.68345         0.41448        11.43124
   H        6.03571        -1.41520        10.89340
   H        8.12426        -5.78839         8.73830
   H        8.80649        -7.96907         7.45581
   H        7.46709       -11.23207         2.33110
   H        7.89727       -16.77750        -2.27686
   H        9.05485       -16.35092        -0.14527
   H        3.07762       -13.44883        -2.86154
   H       -1.82156       -13.06986        -6.64225
   H       -3.68868        -9.69603        -6.76604
   H       -5.47490       -15.53676        -8.27681
   H       -7.08312       -11.38022       -10.45240
   H       -8.95257       -14.14860       -11.39889
   H       -7.55645       -14.16897       -12.46607
   H       -8.29579       -12.62785       -12.01530
   H       -6.62531       -16.83891        -9.77451
   H       -6.73784       -16.16430       -11.40508
   H       -8.14715       -16.15378       -10.35487
*
