# ORCA input file
# SCF done       -183.384190725537          0.000363617554
! CAM-B3LYP def2-SVP def2/J RIJCOSX Grid4 TightSCF
%maxcore 5000
%tddft
    Mode sTDDFT
    Ethresh 5.0
    maxcore 5000
end

%pal
  nprocs 6
  end
* xyz 0 1
   C        0.88501         3.38663         4.53523
   C        0.73783         3.54246         5.88715
   C        1.73963         3.10089         6.76374
   C        2.87376         2.50964         6.27710
   C        3.05692         2.33185         4.89095
   C        4.22285         1.71271         4.38352
   C        4.36788         1.55812         3.03123
   C        3.35387         2.02710         2.14547
   C        2.21484         2.61811         2.60777
   C        2.03998         2.78308         4.00128
   C        3.77232         1.77435         0.75296
   O        3.15200         1.99617        -0.26243
   C        5.15643         1.23386         0.85042
   C        5.42436         0.94006         2.23822
   C        6.39378         0.09492         2.72180
   C        7.17990        -0.74864         1.91283
   N        7.79351        -1.52258         1.32666
   C        6.64581        -0.11951         4.08975
   N        6.93249        -0.30381         5.18714
   C        5.93412         1.19152        -0.26830
   C        7.33961         0.98301        -0.41157
   C        7.79330         0.36945        -1.57678
   C        9.08424        -0.13261        -1.68741
   C        9.99883         0.00090        -0.65367
   C        9.68024         0.86950         0.42395
   C       10.60053         1.42866         1.31545
  Si        9.54779         1.99813         2.67622
   C        8.14744         2.31974         1.56818
   C        8.31585         1.37693         0.55467
   C       11.22251        -0.77806        -0.63829
   C       12.01516        -0.99639        -1.77937
   C       13.15874        -1.88033        -1.75604
   N       13.92753        -2.00791        -2.85412
   C       13.60357        -1.35968        -3.94138
   C       12.44865        -0.50306        -3.97367
   N       11.70868        -0.33325        -2.91039
   C       12.11651         0.18671        -5.16658
   N       11.87350         0.72001        -6.15086
   C       14.41889        -1.48736        -5.09359
   N       15.05123        -1.56835        -6.04540
   C       13.52885        -2.59652        -0.60222
   C       12.73388        -2.38290         0.53508
   C       11.61003        -1.47120         0.52245
   N       10.97302        -1.46261         1.69920
   S       11.68057        -2.50043         2.68728
   N       12.84352        -3.00750         1.71409
   C       14.62023        -3.55715        -0.64354
   C       14.63956        -4.50022        -1.65933
   C       15.62359        -5.47383        -1.74780
   C       16.67783        -5.54795        -0.84101
   C       16.67803        -4.62994         0.26866
   C       17.54986        -4.65362         1.36136
  Si       17.43411        -2.97055         2.01187
   C       15.72720        -2.74503         1.45552
   C       15.63697        -3.59816         0.34911
   C       17.78268        -6.43678        -0.97591
   C       18.08217        -7.48845        -1.80133
   C       19.38240        -8.14871        -1.76515
   C       20.41489        -7.92578        -0.88645
   C       21.64649        -8.61367        -0.92062
   N       22.67524        -9.12240        -0.87691
   C       20.43215        -7.02568         0.19743
   N       20.54951        -6.33965         1.11415
   C       19.41555        -9.14635        -2.82781
   C       18.14375        -9.16675        -3.46214
   C       17.86187       -10.01054        -4.49692
   C       18.86627       -10.88910        -4.96086
   C       18.63896       -11.78048        -6.02746
   C       19.62884       -12.62107        -6.45945
   C       20.88910       -12.60692        -5.84345
   C       21.14236       -11.75255        -4.80515
   C       20.14575       -10.87319        -4.33500
   C       20.40438        -9.98990        -3.26189
   C       17.26055        -8.17059        -2.83206
   O       16.09178        -7.99831        -3.11496
   H        0.11682         3.72488         3.85527
   H       -0.15092         4.00668         6.28772
   H        1.60815         3.23076         7.82758
   H        3.64667         2.16503         6.94856
   H        4.97862         1.38247         5.07915
   H        1.45434         2.95721         1.92020
   H        5.38214         1.33179        -1.19412
   H        7.08679         0.16962        -2.36955
   H        9.34567        -0.71472        -2.55671
   H       11.62116         1.08137         1.32360
   H        7.17856         2.75085         1.76541
   H       13.84305        -4.50398        -2.38750
   H       15.55984        -6.19482        -2.54511
   H       18.38879        -5.32695         1.42316
   H       15.08673        -1.88320         1.53426
   H       18.58539        -6.19296        -0.29489
   H       16.88511       -10.00490        -4.95761
   H       17.66656       -11.78671        -6.49800
   H       19.44639       -13.30123        -7.27806
   H       21.65901       -13.27683        -6.19614
   H       22.11099       -11.73808        -4.32716
   H       21.38485       -10.00417        -2.81405
*
