# ORCA input file
# SCF done       -189.677312092477          0.000737000568
! CAM-B3LYP def2-SVP def2/J RIJCOSX Grid4 TightSCF
%maxcore 5000
%tddft
    Mode sTDDFT
    Ethresh 5.0
    maxcore 5000
end

%pal
  nprocs 6
  end
* xyz 0 1
   C        1.41290        -0.39406         3.15195
   F        2.33346         0.53582         2.89459
   C        0.49283        -0.19471         4.17710
   F        0.51670         0.92357         4.90075
   C       -0.44908        -1.18550         4.43691
   F       -1.34045        -1.01926         5.41500
   C       -0.46521        -2.34641         3.67742
   F       -1.40022        -3.26212         3.96083
   C        0.44029        -2.57773         2.62989
   C        1.38300        -1.56165         2.40189
   F        2.31378        -1.70941         1.45409
   C        0.41157        -3.78744         1.84131
   C        0.92253        -3.97824         0.57113
   C        0.73431        -5.28501         0.12286
   C        0.08270        -6.09892         1.06958
   S       -0.31941        -5.25237         2.48765
   C       -0.04859        -7.40564         0.53790
   C        0.52253        -7.41470        -0.74982
   C        1.02403        -6.08262        -1.05612
   C        1.62406        -5.67593        -2.21121
   C        1.84861        -6.55588        -3.29166
   N        2.03770        -7.26263        -4.17454
   C        2.05143        -4.34616        -2.41344
   N        2.38919        -3.26479        -2.58959
   C        0.44990        -8.65873        -1.36199
   C       -0.17316        -9.59966        -0.55116
   S       -0.67736        -8.93082         0.99138
   C       -0.41480       -10.96414        -0.86153
   C       -1.07295       -11.81297         0.05314
   C       -1.34168       -13.19883        -0.23443
   N       -1.96889       -13.95131         0.67186
   C       -2.33896       -13.43047         1.81892
   C       -2.07340       -12.05267         2.10501
   N       -1.45823       -11.29821         1.22741
   C       -2.47192       -11.49009         3.34305
   N       -2.80572       -11.06525         4.35283
   C       -2.99892       -14.25009         2.76595
   N       -3.53353       -14.89414         3.54812
   C       -0.96241       -13.80648        -1.45534
   C       -0.29405       -12.95887        -2.37200
   C       -0.02728       -11.56759        -2.08180
   N        0.60827       -10.97371        -3.09224
   S        0.84693       -12.03135        -4.27318
   N        0.16131       -13.30111        -3.57717
   C       -1.25070       -15.16659        -1.71349
   C       -0.92938       -15.88916        -2.85977
   C       -1.37191       -17.19964        -2.78875
   C       -2.04039       -17.48604        -1.57710
   S       -2.11330       -16.13959        -0.52791
   C       -2.45867       -18.83548        -1.61572
   C       -2.05863       -19.40748        -2.83691
   C       -1.35141       -18.40143        -3.61058
   C       -0.77377       -18.54770        -4.83688
   C       -0.76436       -19.77534        -5.53389
   N       -0.72629       -20.76485        -6.11128
   C       -0.11790       -17.48033        -5.48732
   N        0.41646       -16.61887        -6.02320
   C       -2.45494       -20.74001        -2.96840
   C       -3.13915       -21.19426        -1.86033
   S       -3.30296       -19.94531        -0.63236
   C       -3.76135       -22.49361        -1.72831
   C       -3.89985       -23.14585        -0.53680
   O       -4.49613       -24.33936        -0.41086
   C       -5.00874       -24.96698        -1.49806
   C       -5.62165       -26.20493        -1.30544
   C       -6.15075       -26.87298        -2.38806
   C       -6.07731       -26.32268        -3.66577
   C       -5.47318       -25.10130        -3.85578
   C       -4.92968       -24.40466        -2.77273
   C       -4.28794       -23.09846        -2.97179
   O       -4.22314       -22.56438        -4.06355
   C       -3.39813       -22.65663         0.78367
   H        1.39175        -3.20521        -0.00809
   H        0.81834        -8.90574        -2.34043
   H       -0.40129       -15.44181        -3.68167
   H       -2.26558       -21.35644        -3.82726
   H       -5.66830       -26.61450        -0.30888
   H       -6.62577       -27.83104        -2.24225
   H       -6.49566       -26.85678        -4.50464
   H       -5.39952       -24.64699        -4.83199
   H       -4.08094       -21.91757         1.20151
   H       -2.41605       -22.20073         0.68892
   H       -3.34562       -23.49806         1.47043
*
