# ORCA input file
# SCF done       -196.825555329234          0.000695253622
! CAM-B3LYP def2-SVP def2/J RIJCOSX Grid4 TightSCF
%maxcore 5000
%tddft
    Mode sTDDFT
    Ethresh 5.0
    maxcore 5000
end

%pal
  nprocs 6
  end
* xyz 0 1
   C      -15.15184        -2.42357         9.74739
   C      -14.78330        -1.15587        10.10137
   F      -15.59653        -0.40370        10.85367
   C      -13.54759        -0.62397         9.68106
   F      -13.21235         0.62139        10.04302
   C      -12.69754        -1.36747         8.91114
   C      -13.04994        -2.67613         8.52837
   C      -14.29832        -3.21598         8.95374
   C      -14.67443        -4.52719         8.58102
   C      -13.83017        -5.27465         7.80272
   C      -12.58831        -4.72407         7.37987
   C      -12.19441        -3.46428         7.72721
   C      -11.88040        -5.71150         6.54750
   O      -10.78367        -5.56933         6.03894
   C      -12.76501        -6.88182         6.45845
   C      -13.94734        -6.62783         7.26210
   C      -14.99125        -7.48290         7.50233
   C      -15.11319        -8.79973         7.01036
   N      -15.29162        -9.87833         6.65798
   C      -16.10752        -7.15948         8.30331
   N      -17.04162        -6.96320         8.94096
   C      -12.53432        -8.00283         5.70350
   C      -11.45604        -8.33354         4.86622
   C      -11.45364        -9.51433         4.11630
   C      -10.32333        -9.64012         3.33290
   C       -9.42533        -8.56045         3.48085
   S      -10.00495        -7.37730         4.59438
   C       -8.29731        -8.67035         2.67812
   C       -8.32966        -9.82261         1.90659
   S       -9.75753       -10.80364         2.17930
   C       -7.39312       -10.22983         0.94009
   C       -7.50888       -11.35213         0.11089
   C       -6.43912       -11.47269        -0.84057
   N       -6.42039       -12.47865        -1.71849
   C       -7.41035       -13.34247        -1.66019
   C       -7.38266       -14.45315        -2.64730
   O       -6.52323       -14.54617        -3.49724
   C       -8.47931       -15.42817        -2.51895
   C       -9.46375       -15.32188        -1.62075
   C       -9.57325       -14.21704        -0.65055
   O      -10.49585       -14.12777         0.12980
   C       -8.46901       -13.22478        -0.70442
   N       -8.50594       -12.23466         0.16000
   C       -5.49273       -10.44420        -0.72410
   S       -5.94600        -9.35742         0.55310
   C       -4.34902       -10.24764        -1.52255
   C       -3.98370       -10.99971        -2.62854
   C       -2.82539       -10.50366        -3.21448
   C       -2.28199        -9.37893        -2.56538
   S       -3.23448        -8.92822        -1.19789
   C       -1.14670        -8.86724        -3.17691
   C       -0.78107        -9.60153        -4.29580
   S       -1.89527       -10.92986        -4.59946
   C        0.26248        -9.24387        -5.17869
   C        0.79479        -9.92352        -6.23049
   C        1.48156        -9.16058        -7.31094
   O        1.88093        -8.02162        -7.25289
   C        1.49467       -10.07436        -8.47165
   C        1.87699        -9.82122        -9.75740
   C        1.76283       -10.84738       -10.72191
   C        1.25075       -12.12006       -10.33415
   C        1.13034       -13.13426       -11.30533
   C        1.50300       -12.89759       -12.59876
   C        2.01108       -11.63942       -12.98047
   C        2.13922       -10.63508       -12.06256
   F        2.36704       -11.43526       -14.25567
   F        1.38758       -13.86254       -13.52002
   C        0.87327       -12.35712        -8.99226
   C        0.99849       -11.34958        -8.07452
   C        0.72436       -11.30927        -6.64078
   C        0.70290       -12.39245        -5.80332
   C        0.75146       -12.26786        -4.39872
   N        0.84913       -12.18688        -3.25811
   C        0.74725       -13.72687        -6.25480
   N        0.77141       -14.82505        -6.58668
   H      -16.10106        -2.81513        10.07836
   H      -11.75545        -0.94626         8.59694
   H      -15.62598        -4.90332         8.91958
   H      -11.24532        -3.07444         7.39214
   H      -13.30341        -8.76584         5.71693
   H      -12.25825       -10.22624         4.15335
   H       -7.49457        -7.95682         2.63451
   H       -8.44201       -16.25228        -3.21859
   H      -10.25510       -16.05721        -1.56441
   H       -4.55110       -11.84861        -2.96356
   H       -0.59430        -8.01297        -2.83110
   H        0.62344        -8.22513        -5.06737
   H        2.25814        -8.85069       -10.03631
   H        0.74655       -14.10404       -11.02967
   H        2.52929        -9.67757       -12.37036
   H        0.48157       -13.32554        -8.72390
*
