# ORCA input file
# SCF done       -223.616483770597          0.000563496974
! CAM-B3LYP def2-SVP def2/J RIJCOSX Grid4 TightSCF
%maxcore 5000
%tddft
    Mode sTDDFT
    Ethresh 5.0
    maxcore 5000
end

%pal
  nprocs 6
  end
* xyz 0 1
   C       12.58682        -5.01681         6.66426
   C       13.01462        -5.33450         7.92304
   F       14.21964        -4.93235         8.34583
   C       12.19685        -6.08658         8.79038
   F       12.64187        -6.38308        10.01825
   C       10.96170        -6.51067         8.38656
   C       10.49279        -6.19868         7.09585
   C       11.31852        -5.43859         6.21762
   C       10.86902        -5.11251         4.91698
   C        9.63112        -5.53232         4.50690
   C        8.81401        -6.28963         5.39270
   C        9.21991        -6.62166         6.65292
   C        7.54417        -6.60861         4.72085
   O        6.61864        -7.24771         5.19025
   C        7.62069        -6.00311         3.38654
   C        8.90970        -5.35027         3.24839
   C        9.39399        -4.68652         2.15135
   C        8.71500        -4.50847         0.92751
   N        8.23351        -4.32198        -0.09844
   C       10.66796        -4.08161         2.09367
   N       11.68988        -3.57151         1.98036
   C        6.62686        -6.04529         2.44262
   C        5.36215        -6.65313         2.49237
   C        4.47084        -6.58543         1.42117
   C        3.28198        -7.25015         1.65091
  Cl        2.01502        -7.32189         0.49688
   C        3.21324        -7.85765         2.91000
   S        4.67544        -7.57088         3.80737
   C        2.14501        -8.61490         3.43634
   C        2.06345        -9.23185         4.68799
  Cl        3.31613        -9.14525         5.84694
   C        0.87927        -9.92650         4.91339
   C        0.01253        -9.86197         3.83598
   S        0.68508        -8.92052         2.53570
   C       -1.25341       -10.46990         3.73335
   C       -1.88316       -11.27665         4.69376
   C       -3.16489       -11.76879         4.26178
   N       -3.89796       -12.56106         5.04715
   C       -3.40089       -12.86346         6.22636
   C       -4.21975       -13.74862         7.09397
   O       -5.28874       -14.19914         6.74187
   C       -3.63374       -14.04096         8.41402
   C       -2.44785       -13.57494         8.81915
   C       -1.58314       -12.71196         7.99511
   O       -0.50576       -12.31158         8.38111
   C       -2.13105       -12.36904         6.65808
   N       -1.39415       -11.59222         5.89438
   C       -3.51486       -11.33082         2.97600
   S       -2.25907       -10.32490         2.32829
   C       -4.68712       -11.64568         2.26133
   C       -5.71498       -12.47568         2.67347
   C       -6.71631       -12.59741         1.71494
  Cl       -8.10747       -13.56478         1.94926
   C       -6.49609       -11.86176         0.54974
   S       -4.99026       -10.99892         0.67384
   C       -7.31406       -11.77759        -0.59837
   C       -7.13849       -10.97715        -1.72658
  Cl       -5.82475        -9.89340        -1.90267
   C       -8.11826       -11.14197        -2.69973
   C       -9.09254       -12.05763        -2.34403
   S       -8.74642       -12.73956        -0.77743
   C      -10.15097       -12.49014        -3.17537
   C      -11.22877       -13.26770        -2.88443
   C      -11.90955       -14.00171        -3.98906
   O      -11.80611       -13.78704        -5.17347
   C      -12.66675       -15.07935        -3.32008
   C      -13.35363       -16.11838        -3.87883
   C      -13.97858       -17.06207        -3.03311
   C      -13.87582       -16.91198        -1.61919
   C      -14.49396       -17.86323        -0.78289
   C      -15.18374       -18.91165        -1.32397
   C      -15.28644       -19.05785        -2.72218
   C      -14.69730       -18.15295        -3.55994
   F      -15.96768       -20.09603        -3.22460
   F      -15.77047       -19.81427        -0.52769
   C      -13.16621       -15.82001        -1.06870
   C      -12.57546       -14.91419        -1.90782
   C      -11.82610       -13.69079        -1.63525
   C      -11.91867       -12.94308        -0.49191
   C      -11.43825       -11.61976        -0.39923
   N      -11.11044       -10.52292        -0.31990
   C      -12.59109       -13.37286         0.66985
   N      -13.11029       -13.69460         1.64128
   H       13.22569        -4.44056         6.01336
   H       10.34753        -7.08534         9.06200
   H       11.51924        -4.53591         4.27959
   H        8.57818        -7.19757         7.30212
   H        6.81732        -5.53948         1.50401
   H        4.69504        -6.06541         0.50720
   H        0.64710       -10.46217         5.81577
   H       -4.23598       -14.67509         9.05065
   H       -2.05287       -13.81682         9.79671
   H       -5.71921       -12.96612         3.62994
   H       -8.13014       -10.59693        -3.62570
   H      -10.03465       -12.24790        -4.22793
   H      -13.41850       -16.22037        -4.95137
   H      -14.42833       -17.76434         0.28935
   H      -14.78476       -18.27897        -4.62773
   H      -13.09625       -15.73180         0.00390
*
