# ORCA input file
# SCF done       -181.501338204970          0.000345459169
! CAM-B3LYP def2-SVP def2/J RIJCOSX Grid4 TightSCF
%maxcore 5000
%tddft
    Mode sTDDFT
    Ethresh 5.0
    maxcore 5000
end

%pal
  nprocs 6
  end
* xyz 0 1
   C       -3.67781         1.14868        -2.47191
   C       -4.69674         2.04466        -2.26644
   C       -5.91357         1.72419        -1.63487
   N       -6.91139         1.53143        -1.09974
   C       -4.66794         3.37814        -2.71541
   N       -4.70055         4.46544        -3.08447
   C       -3.76958        -0.29283        -2.26610
   C       -2.71000        -0.92239        -2.98315
   C       -2.56781        -2.27931        -3.00979
   C       -3.48936        -3.08310        -2.30037
   C       -4.53929        -2.45950        -1.56667
   C       -4.66506        -1.05062        -1.56184
   C       -5.44815        -3.27192        -0.85926
   C       -5.33120        -4.63526        -0.87855
   C       -4.29867        -5.24843        -1.60323
   C       -3.39710        -4.48866        -2.29841
   C       -1.87649         0.11274        -3.61960
   O       -0.92275        -0.03852        -4.35053
   C       -2.42433         1.41118        -3.13530
   C       -1.68708         2.54375        -3.32145
   C       -1.77338         3.80424        -2.67798
   C       -2.28478         3.97627        -1.37708
   C       -2.33576         5.26877        -0.73324
   N       -2.84017         5.18815         0.49933
   S       -3.20034         3.66169         0.82433
   N       -2.74012         3.01348        -0.56677
   C       -1.89888         6.44936        -1.36203
   C       -1.34823         6.28815        -2.66494
   C       -0.84572         7.28156        -3.47729
   S       -0.29720         6.67527        -4.96571
   C       -0.72219         5.07762        -4.56029
   C       -1.27058         4.98521        -3.29873
   C       -2.02670         7.69972        -0.72046
   N       -1.67282         8.84989        -1.24289
   C       -1.92491         9.85110        -0.41702
   C       -2.49992         9.50438         0.83367
   S       -2.72267         7.80483         0.92051
   N       -2.75081        10.50628         1.65958
   C       -2.40994        11.65737         1.13125
   S       -1.71752        11.55164        -0.51228
   C       -2.55803        12.91279         1.75889
   C       -2.19739        14.09760         1.08787
   C       -2.30494        15.39710         1.70600
   N       -1.89278        16.36652         0.88327
   S       -1.44286        15.72098        -0.51026
   N       -1.71959        14.18067        -0.15582
   C       -2.72373        15.56765         3.04191
   C       -3.17995        14.38954         3.69398
   C       -3.80009        14.31255         4.92240
   S       -4.21413        12.71844         5.33923
   C       -3.60084        12.09305         3.88334
   C       -3.09023        13.08073         3.06922
   C       -2.69946        16.87543         3.59072
   C       -2.42811        17.24789         4.87848
   C       -2.53280        18.59803         5.39348
   C       -3.26005        19.61657         4.83194
   C       -3.34842        20.91395         5.37544
   N       -3.44904        21.98893         5.76659
   C       -4.05241        19.48845         3.67200
   N       -4.74781        19.45136         2.75876
   C       -1.81939        18.65230         6.66282
   C       -1.33893        17.34583         6.96426
   C       -1.71300        16.41771         5.88102
   O       -1.41743        15.24282         5.80092
   C       -0.62974        17.08459         8.10059
   C       -0.36522        18.13774         9.00558
   C       -0.83945        19.44787         8.70870
   C       -1.57106        19.68844         7.52246
   C       -0.56473        20.49133         9.61532
   C        0.14389        20.25442        10.76191
   C        0.61028        18.96419        11.05353
   C        0.36038        17.92830        10.19445
   H       -1.76355        -2.73675        -3.56679
   H       -5.46536        -0.60427        -0.99260
   H       -6.24357        -2.79520        -0.30531
   H       -6.03487        -5.24884        -0.33602
   H       -4.22103        -6.32544        -1.60815
   H       -2.59974        -4.95545        -2.85816
   H       -0.87286         2.42781        -4.03037
   H       -0.79118         8.32625        -3.25204
   H       -0.55146         4.29227        -5.26779
   H       -4.05271        15.11652         5.58221
   H       -3.65299        11.04673         3.66468
   H       -2.82556        17.65962         2.85236
   H       -0.27498        16.08580         8.30796
   H       -1.91037        20.69204         7.31987
   H       -0.92693        21.48292         9.38641
   H        0.34896        21.06059        11.45031
   H        1.16915        18.79491        11.96181
   H        0.71777        16.93271        10.41377
*
