# ORCA input file
# SCF done       -208.878525568751          0.000350740792
! CAM-B3LYP def2-SVP def2/J RIJCOSX Grid4 TightSCF
%maxcore 5000
%tddft
    Mode sTDDFT
    Ethresh 5.0
    maxcore 5000
end

%pal
  nprocs 6
  end
* xyz 0 1
   C        0.08354         0.75385         1.15145
   C        0.81750         1.55603         0.31516
   C        1.52449         1.07950        -0.80870
   N        2.12125         0.74701        -1.73082
   C        1.03847         2.92889         0.53184
   N        1.26592         4.04453         0.68357
   C        0.05113        -0.70443         1.08433
   C       -0.36004        -1.20881         2.35268
   C       -0.43806        -2.54877         2.60109
   C       -0.11493        -3.46021         1.57054
   C        0.27264        -2.96192         0.29301
   C        0.35117        -1.56826         0.06622
   C        0.58207        -3.88183        -0.72914
   C        0.51835        -5.22956        -0.50093
   C        0.13972        -5.71926         0.75791
   C       -0.17053        -4.85347         1.77138
   C       -0.67189        -0.08002         3.24471
   O       -1.00310        -0.11165         4.40814
   C       -0.55126         1.14021         2.39332
   C       -1.08607         2.30457         2.85599
   C       -1.43078         3.47392         2.14594
   C       -1.64080         3.64816         0.78525
   C       -1.98487         4.95528         0.46906
   C       -2.04782         5.79690         1.59912
   S       -1.70684         4.96548         3.04267
   C       -2.36770         7.10672         1.16275
   C       -2.49943         7.09412        -0.23709
   C       -2.25739         5.74507        -0.71924
   C       -2.25099         5.31234        -2.01328
   C       -2.51222         6.17754        -3.09521
   N       -2.73105         6.87893        -3.97592
   C       -1.98102         3.96615        -2.33765
   N       -1.76800         2.86699        -2.58575
   C       -2.80669         8.34482        -0.76741
   C       -2.91579         9.31897         0.20611
   S       -2.62680         8.65944         1.81741
   C       -3.21995        10.71190         0.04943
   C       -3.35022        11.53495         1.16147
   C       -3.64677        12.88134         1.05406
   C       -3.82891        13.50696        -0.17340
   C       -3.69548        12.69929        -1.34510
   C       -3.39884        11.31429        -1.23439
   N       -3.28361        10.57177        -2.35156
   C       -3.44050        11.11918        -3.52777
   C       -3.73556        12.51002        -3.63906
   N       -3.85417        13.24573        -2.56540
   C       -3.91767        13.17073        -4.96054
   C       -3.30127        10.24712        -4.72633
   C       -4.14168        14.90541        -0.23756
   C       -4.29889        15.70442        -1.35402
   C       -4.60389        17.02345        -1.02682
   C       -4.68500        17.24037         0.35994
   S       -4.38147        15.81845         1.25281
   C       -4.99846        18.60152         0.58689
   C       -5.10807        19.25204        -0.66352
   C       -4.88205        18.27411        -1.71552
   C       -4.94443        18.46816        -3.06391
   C       -5.27801        19.70894        -3.64981
   N       -5.56755        20.69590        -4.15545
   C       -4.70600        17.42103        -3.97855
   N       -4.51482        16.57631        -4.73060
   C       -5.38597        20.60737        -0.55192
   C       -5.50005        21.01205         0.77220
   S       -5.27285        19.65641         1.88934
   C       -5.81340        22.25482         1.35703
   C       -5.80341        23.50948         0.81196
   C       -6.25422        24.70199         1.50781
   C       -7.04482        24.74382         2.62794
   C       -7.47102        25.93718         3.24718
   N       -7.84577        26.86969         3.80237
   C       -7.57799        23.62068         3.29389
   N       -8.06535        22.75821         3.87572
   C       -5.79902        25.86163         0.75171
   C       -5.15753        25.40185        -0.43265
   C       -5.16414        23.92930        -0.46129
   O       -4.68496        23.22930        -1.32817
   C       -4.63213        26.26334        -1.35165
   C       -4.72325        27.65428        -1.12085
   C       -5.35536        28.12333         0.06684
   C       -5.89241        27.20565         0.99896
   C       -5.43386        29.51298         0.29032
   C       -4.91534        30.39820        -0.61527
   C       -4.29464        29.93522        -1.78499
   C       -4.20113        28.59244        -2.03266
   H       -0.74241        -2.91027         3.57209
   H        0.63605        -1.21766        -0.91340
   H        0.87636        -3.49985        -1.69557
   H        0.76031        -5.92621        -1.28954
   H        0.09472        -6.78573         0.92070
   H       -0.46326        -5.22471         2.74268
   H       -1.33544         2.29753         3.91325
   H       -1.58495         2.84240         0.07618
   H       -2.94942         8.57412        -1.80672
   H       -3.21886        11.11041         2.14648
   H       -3.73774        13.46511         1.95891
   H       -3.02058        13.05171        -5.56618
   H       -4.12234        14.22939        -4.82755
   H       -4.74480        12.71044        -5.49905
   H       -3.09446         9.22365        -4.42595
   H       -2.48980        10.60567        -5.35801
   H       -4.21610        10.27048        -5.31648
   H       -4.18817        15.30603        -2.34501
   H       -5.49768        21.28504        -1.37784
   H       -6.07530        22.18421         2.40684
   H       -4.15399        25.88723        -2.24388
   H       -6.35901        27.59219         1.89107
   H       -5.91421        29.86473         1.19160
   H       -4.98102        31.46077        -0.43512
   H       -3.89072        30.64770        -2.48866
   H       -3.72437        28.22971        -2.93152
*
