# ORCA input file
# SCF done       -207.601094958223          0.000461948415
! CAM-B3LYP def2-SVP def2/J RIJCOSX Grid4 TightSCF
%maxcore 5000
%tddft
    Mode sTDDFT
    Ethresh 5.0
    maxcore 5000
end

%pal
  nprocs 6
  end
* xyz 0 1
   C       -4.43936         0.05417        -1.65480
   O       -4.62693        -0.60339        -0.65593
   C       -4.20024         1.51284        -1.70029
   C       -4.00708         1.92598        -3.02943
   C       -3.75172         3.26355        -3.29929
   C       -3.69864         4.15892        -2.24234
   C       -3.89887         3.72847        -0.93624
   C       -4.15174         2.39549        -0.64120
  Br       -3.82008         4.99445         0.47590
   C       -4.13356         0.76398        -3.90314
   C       -4.15438         0.80117        -5.27247
   C       -3.98167         1.97853        -6.03209
   N       -3.84103         2.89755        -6.70463
   C       -4.39303        -0.30317        -6.11901
   N       -4.60446        -1.14499        -6.87072
   C       -4.33027        -0.40520        -3.06112
   C       -4.25756        -1.69489        -3.51286
   C       -4.52838        -2.91076        -2.85547
   C       -5.18362        -3.20245        -1.66271
   C       -5.29079        -4.56738        -1.44727
   C       -4.70338        -5.34288        -2.47789
   S       -4.04821        -4.38155        -3.71539
   C       -4.86209        -6.70987        -2.16709
   C       -5.55938        -6.80750        -0.94180
   C       -5.85541        -5.46821        -0.45555
   C       -6.54386        -5.14042         0.67426
   C       -7.04790        -6.12574         1.55132
   N       -7.45976        -6.92287         2.26497
   C       -6.82910        -3.80656         1.04106
   N       -7.09296        -2.73504         1.34954
   C       -5.79232        -8.11945        -0.56117
   C       -5.27763        -9.02727        -1.48259
   S       -4.48257        -8.23912        -2.83473
   C       -5.37840       -10.44008        -1.42745
   C       -4.80738       -11.25050        -2.43555
   C       -4.94919       -12.68219        -2.44579
   N       -4.39261       -13.39321        -3.43167
   C       -3.71940       -12.78722        -4.37977
   C       -3.57805       -11.36189        -4.36956
   N       -4.12065       -10.64879        -3.41243
   C       -2.84907       -10.70394        -5.39153
   N       -2.25522       -10.19528        -6.22781
   C       -3.13545       -13.56053        -5.41392
   N       -2.65445       -14.16315        -6.26032
   C       -5.67637       -13.37819        -1.45251
   C       -6.21470       -12.57494        -0.41923
   C       -6.06545       -11.13650        -0.40490
   N       -6.65936       -10.59724         0.66043
   S       -7.32576       -11.75214         1.54728
   N       -6.90915       -13.00170         0.63639
   C       -5.85943       -14.78124        -1.53120
   C       -6.59834       -15.57470        -0.65808
   C       -6.61201       -16.90280        -1.05273
   C       -5.86764       -17.13207        -2.23267
   S       -5.16017       -15.70373        -2.85191
   C       -5.95857       -18.50463        -2.55476
   C       -6.76944       -19.14269        -1.58813
   C       -7.19076       -18.15924        -0.60627
   C       -7.94533       -18.38553         0.50710
   C       -8.42112       -19.67763         0.81618
   N       -8.80239       -20.73450         1.04522
   C       -8.29341       -17.35361         1.40429
   N       -8.58347       -16.51342         2.12812
   C       -6.91870       -20.50113        -1.81785
   C       -6.22037       -20.92309        -2.94344
   S       -5.39751       -19.58685        -3.74136
   C       -6.15209       -22.21018        -3.51604
   C       -6.48064       -23.41533        -2.97125
   C       -6.74095       -24.55916        -3.89268
   O       -6.47544       -24.61351        -5.06900
   C       -7.43787       -25.56643        -3.06471
   C       -7.47054       -25.13233        -1.72645
   C       -6.74250       -23.86876        -1.62088
   C       -6.19719       -23.37668        -0.46435
   C       -6.39010       -23.96159         0.80595
   N       -6.51010       -24.40322         1.85761
   C       -5.30332       -22.28882        -0.41809
   N       -4.55592       -21.42096        -0.34080
   C       -8.11781       -25.89896        -0.76898
   C       -8.70873       -27.09091        -1.15954
   C       -8.64817       -27.51205        -2.48244
   C       -8.01471       -26.75569        -3.46013
  Br       -9.46028       -29.15838        -2.96587
   H       -3.58864         3.61922        -4.30317
   H       -3.49918         5.20200        -2.43412
   H       -4.30730         2.05258         0.36994
   H       -3.92994        -1.82729        -4.53776
   H       -5.55165        -2.44031        -1.00063
   H       -6.30780        -8.44091         0.32503
   H       -7.09051       -15.16523         0.20495
   H       -7.54084       -21.15449        -1.23415
   H       -5.86464       -22.25172        -4.56263
   H       -8.18286       -25.58269         0.25937
   H       -9.22141       -27.69919        -0.43038
   H       -7.97101       -27.07645        -4.48934
*
