# ORCA input file
# SCF done       -143.728905654969          0.000514472437
! CAM-B3LYP def2-SVP def2/J RIJCOSX Grid4 TightSCF
%maxcore 5000
%tddft
    Mode sTDDFT
    Ethresh 5.0
    maxcore 5000
end

%pal
  nprocs 6
  end
* xyz 0 1
   C      -12.68643        -2.56787         1.95201
   C      -13.56669        -3.22155         1.10401
   C      -13.11796        -4.18088         0.20480
   C      -11.77596        -4.52112         0.13331
   C      -10.88537        -3.87917         0.97906
   C      -11.33929        -2.89344         1.88818
   C      -10.20229        -2.37775         2.63256
   C      -10.23385        -1.56931         3.72891
   C      -11.42539        -1.07538         4.30797
   N      -12.35800        -0.64720         4.81951
   C       -9.09539        -1.16540         4.46486
   N       -8.22075        -0.81292         5.11704
   C       -9.00114        -2.92326         1.98092
   C       -9.45508        -4.05895         1.16207
   C       -8.73796        -5.17024         0.84179
   C       -7.42649        -5.42220         1.30555
   N       -6.39606        -5.70618         1.72131
   C       -9.24749        -6.24341         0.07882
   N       -9.61585        -7.13485        -0.54175
   C       -7.79271        -2.32598         1.99987
   C       -6.67249        -2.64839         1.13595
   N       -6.91101        -3.27286        -0.01379
   C       -5.84943        -3.59738        -0.72950
   N       -4.59762        -3.30143        -0.40438
   C       -4.47654        -2.61732         0.72222
   N       -5.45715        -2.27305         1.52910
   C       -6.13527        -4.42296        -1.92052
   N       -5.34290        -4.36136        -2.97637
   C       -5.68380        -5.16268        -3.98169
   N       -6.70751        -6.00344        -3.96686
   C       -7.43432        -5.98145        -2.86618
   N       -7.20867        -5.20383        -1.82373
   C       -4.85644        -5.07820        -5.20043
   N       -3.68840        -4.47660        -5.06608
   C       -2.98536        -4.31254        -6.18409
   N       -3.35936        -4.79530        -7.36702
   C       -4.52770        -5.40766        -7.37999
   N       -5.33125        -5.55916        -6.34206
   C       -1.71005        -3.62639        -6.09272
   C       -1.33962        -2.81781        -5.07991
   C        0.05073        -2.42654        -4.79524
   C        1.06649        -2.32437        -5.69725
   C        0.92707        -2.52194        -7.09082
   N        0.88201        -2.65583        -8.22858
   C        2.38620        -1.95209        -5.35252
   N        3.47077        -1.65524        -5.12867
   C        0.11380        -2.16713        -3.36587
   C       -1.20161        -2.15850        -2.84460
   C       -1.43067        -1.97422        -1.49158
   C       -0.33737        -1.78011        -0.66157
   C        0.95520        -1.76705        -1.17229
   C        1.19706        -1.96326        -2.52343
   C       -2.13912        -2.35231        -3.93485
   C       -3.43676        -1.94445        -3.95506
   C       -4.10817        -1.37444        -2.85191
   N       -4.70430        -0.87504        -2.00855
   C       -4.24546        -1.94161        -5.11470
   N       -4.92321        -1.86363        -6.03646
   H      -13.04872        -1.81931         2.63761
   H      -14.61684        -2.97615         1.14188
   H      -13.82360        -4.66924        -0.44954
   H      -11.43579        -5.26006        -0.57371
   H       -7.60573        -1.49527         2.66541
   H       -3.47681        -2.32872         1.02207
   H       -8.28206        -6.65317        -2.80726
   H       -4.86048        -5.81628        -8.32544
   H       -1.01551        -3.87332        -6.88277
   H       -2.43338        -2.01049        -1.09955
   H       -0.48986        -1.63992         0.39771
   H        1.78932        -1.61148        -0.50540
   H        2.20734        -1.96647        -2.89918
*
