# ORCA input file
# SCF done       -201.062581608905          0.000518063733
! CAM-B3LYP def2-SVP def2/J RIJCOSX Grid4 TightSCF
%maxcore 5000
%tddft
    Mode sTDDFT
    Ethresh 5.0
    maxcore 5000
end

%pal
  nprocs 6
  end
* xyz 0 1
   C       -5.23024        -2.24041        -0.51915
   C       -4.29394        -2.48422        -1.49031
   C       -3.91582        -3.77517        -1.91745
   N       -3.56453        -4.79736        -2.30288
   C       -3.59738        -1.49569        -2.21646
   N       -3.00737        -0.73985        -2.84938
   C       -6.00160        -3.25612         0.18780
   C       -6.93895        -2.61096         1.03331
   C       -7.81890        -3.30067         1.83147
   C       -7.77050        -4.69803         1.79724
   C       -6.83042        -5.33569         0.95150
   C       -5.94273        -4.63672         0.14261
   S       -6.93878        -7.06500         1.06596
   C       -8.22644        -6.91197         2.23177
   C       -8.56022        -5.63133         2.52160
  Br       -9.00629        -8.45505         2.95596
   C       -6.78762        -1.15350         0.89898
   O       -7.44304        -0.30140         1.47033
   C       -5.67855        -0.94258        -0.04130
   C       -5.11137         0.26108        -0.35780
   C       -5.46991         1.56719         0.02070
   S       -6.85207         2.00826         0.98615
   C       -6.42634         3.67644         0.88251
   C       -5.27118         3.89165         0.15053
   C       -4.74242         2.70350        -0.36012
   C       -3.50655         2.67053        -1.20576
   C       -3.17991         4.06317        -1.76540
   C       -1.86037         4.05007        -2.35893
   N       -0.80578         4.03513        -2.79599
   C       -3.24239         5.11019        -0.63415
   C       -2.78653         6.39980        -1.10177
   N       -2.46680         7.43046        -1.47579
   C       -4.68597         5.23934        -0.13189
   C       -7.24937         4.65367         1.57129
   C       -8.62273         4.68655         1.41584
   F       -9.20780         3.87197         0.52641
   C       -9.46143         5.57193         2.11932
   F      -10.76929         5.54856         1.81720
   C       -8.98528         6.46351         3.06077
   C       -7.57676         6.46688         3.23538
   C       -6.72023         5.57945         2.50357
   N       -5.44179         5.73172         2.85636
   S       -5.33395         6.85910         3.99584
   N       -6.89150         7.22265         4.09334
   C       -9.79149         7.33039         3.88734
   S       -9.13554         8.87698         4.29885
   C      -10.41762         9.16561         5.43580
   C      -11.33414         8.13129         5.42517
   C      -10.96678         7.07685         4.56312
   C      -11.73859         5.79829         4.49942
   C      -12.58349         5.62545         5.76928
   C      -13.43368         4.46438         5.62977
   N      -14.10878         3.55402         5.49028
   C      -13.42984         6.89638         5.99259
   C      -14.38786         6.69472         7.05742
   N      -15.12589         6.54882         7.91629
   C      -12.50254         8.06437         6.35418
   C      -10.38771        10.30977         6.28589
   C       -9.26807        10.88703         6.78851
   C       -7.88730        10.43170         6.78091
   C       -7.46702         9.12816         6.84416
   C       -6.13194         8.71030         6.71231
   N       -5.07792         8.29639         6.51680
   C       -8.35557         8.04815         7.03178
   N       -9.05524         7.16530         7.25331
   C       -7.04829        11.60680         6.94823
   C       -7.87193        12.70900         7.29857
   C       -9.28797        12.28679         7.30031
   O      -10.26083        12.93863         7.59392
   C       -7.35465        13.95110         7.57678
   C       -5.96725        14.11419         7.49837
   C       -5.15582        13.00832         7.14143
   C       -5.67565        11.75000         6.86843
   S       -3.47334        13.43658         7.10251
   C       -3.87313        15.07012         7.56370
   C       -5.19964        15.28600         7.73656
  Br       -2.50427        16.33324         7.77132
   H       -8.52130        -2.77913         2.46240
   H       -5.24477        -5.16945        -0.48111
   H       -9.33098        -5.35507         3.21764
   H       -4.23376         0.22181        -0.98847
   H       -3.61859         1.97211        -2.03865
   H       -2.66273         2.31901        -0.60047
   H       -3.90474         4.33296        -2.54346
   H       -2.58966         4.79066         0.18733
   H       -5.29365         5.74952        -0.88777
   H       -4.70327         5.84487         0.77521
   H      -11.05568         4.95214         4.39154
   H      -12.39535         5.80062         3.62295
   H      -11.92673         5.47482         6.63502
   H      -13.98423         7.12220         5.07279
   H      -12.13065         7.92841         7.37590
   H      -13.05837         9.00571         6.33439
   H      -11.33087        10.79258         6.52024
   H       -7.99887        14.77176         7.85049
   H       -5.02595        10.93385         6.59694
   H       -5.62046        16.23326         8.02009
*
