# ORCA input file
# SCF done       -206.557460735418          0.000762187565
! CAM-B3LYP def2-SVP def2/J RIJCOSX Grid4 TightSCF
%maxcore 5000
%tddft
    Mode sTDDFT
    Ethresh 5.0
    maxcore 5000
end

%pal
  nprocs 6
  end
* xyz 0 1
   C       -9.08851         2.28777        -1.25670
   C      -10.06383         2.95288        -0.56815
   F      -10.40228         4.20159        -0.91704
   C      -10.72586         2.33720         0.51272
   F      -11.68012         3.01259         1.16820
   C      -10.40302         1.06398         0.89050
   C       -9.40487         0.35115         0.19857
   C       -8.73378         0.97282        -0.89410
   C       -7.73077         0.27536        -1.60603
   C       -7.41517        -1.00628        -1.23957
   C       -8.09542        -1.62084        -0.15296
   C       -9.06198        -0.97133         0.55831
   C       -7.60338        -3.00245         0.02324
   O       -7.99240        -3.79372         0.85577
   C       -6.62285        -3.21409        -1.06614
   C       -6.45559        -1.96373        -1.78037
   C       -5.51622        -1.69049        -2.74178
   C       -4.52425        -2.58944        -3.18658
   N       -3.67702        -3.25753        -3.58068
   C       -5.39469        -0.44504        -3.39201
   N       -5.25461         0.54087        -3.96348
   C       -6.11789        -4.41590        -1.49176
   C       -6.15720        -5.67290        -0.86529
   C       -6.37375        -6.05005         0.45503
   C       -6.32394        -7.42565         0.62407
   C       -6.07169        -8.12642        -0.58201
   S       -5.84705        -7.07929        -1.90202
   C       -6.11502        -9.50813        -0.31271
   C       -6.38394        -9.69800         1.05580
   C       -6.49890        -8.39111         1.69216
   C       -6.71013        -8.14379         3.01704
   C       -6.87276        -9.18967         3.94951
   N       -7.00749       -10.04364         4.70333
   C       -6.75598        -6.84030         3.55742
   N       -6.77138        -5.79455         4.02608
   C       -6.48374       -11.03753         1.41377
   C       -6.30169       -11.88363         0.32857
   S       -5.98234       -10.99378        -1.15480
   C       -6.38695       -13.29571         0.32283
   N       -6.23968       -14.04158        -0.82752
   C       -6.42319       -15.35180        -0.51656
   C       -6.47171       -16.63365        -1.04509
   C       -6.76709       -17.48671         0.03145
   N       -6.88770       -16.73616         1.18556
   C       -6.68563       -15.43043         0.87849
   C       -6.66136       -14.14506         1.40442
   C       -6.97845       -18.88356         0.05793
   C       -6.83958       -19.70778        -1.01801
   C       -7.08864       -21.09568        -1.06487
   S       -6.38491       -22.00118        -2.35774
   C       -7.02955       -23.52267        -1.80368
   C       -7.77421       -23.32603        -0.61602
   C       -7.83465       -21.95138        -0.22498
   C       -8.65267       -21.58481         0.85574
   C       -9.28741       -22.55053         1.58738
   S      -10.31559       -22.06893         2.97002
   C       -9.10615       -23.92705         1.30182
   O       -9.64655       -24.88128         2.08180
   C       -8.38561       -24.29767         0.18805
   C       -6.75286       -24.64858        -2.58889
   C       -7.30200       -25.90235        -2.50167
   C       -6.91015       -26.92584        -3.37393
   C       -7.44067       -28.19625        -3.37881
   C       -7.07161       -29.28459        -4.25405
   C       -6.10797       -29.27939        -5.23242
   C       -5.79902       -30.38906        -6.04586
   N       -5.49787       -31.24908        -6.74461
   C       -5.28614       -28.18537        -5.57162
   N       -4.57440       -27.34874        -5.90884
   C       -7.91534       -30.43099        -3.91313
   C       -8.76891       -30.06821        -2.85778
   C       -8.50892       -28.66312        -2.47153
   O       -9.07174       -28.04781        -1.58830
   C       -9.68466       -30.95054        -2.32405
   C       -9.75289       -32.23172        -2.85749
   C       -8.90746       -32.60262        -3.90734
   C       -7.98495       -31.70902        -4.44178
  Cl       -9.00119       -34.18980        -4.55909
  Cl      -10.88179       -33.36056        -2.22287
   H       -8.59074         2.77437        -2.08089
   H      -10.91884         0.60609         1.71994
   H       -7.24530         0.77089        -2.43112
   H       -9.55980        -1.46187         1.38084
   H       -5.66252        -4.43023        -2.47565
   H       -6.56203        -5.34011         1.23841
   H       -6.68873       -11.39703         2.40435
   H       -6.04290       -13.65698        -1.73585
   H       -6.32705       -16.93373        -2.06247
   H       -7.09242       -17.11411         2.09471
   H       -6.81957       -13.83774         2.41749
   H       -7.24097       -19.29817         1.02021
   H       -6.45106       -19.28367        -1.93418
   H       -8.82122       -20.54923         1.09632
   H      -11.39517       -22.75806         2.58685
   H      -10.00403       -24.48126         2.89128
   H       -8.29342       -25.34933        -0.01570
   H       -6.04015       -24.47888        -3.38986
   H       -8.07311       -26.12605        -1.78567
   H       -6.13375       -26.68816        -4.08955
   H      -10.33035       -30.65023        -1.51402
   H       -7.35135       -32.03251        -5.25106
*
