# ORCA input file
# SCF done       -236.228271045585          0.000444229920
! CAM-B3LYP def2-SVP def2/J RIJCOSX Grid4 TightSCF
%maxcore 5000
%tddft
    Mode sTDDFT
    Ethresh 5.0
    maxcore 5000
end

%pal
  nprocs 6
  end
* xyz 0 1
   C       -9.68813         0.83084        -2.75800
   C       -9.44432         2.17053        -2.87800
   F      -10.33954         2.96712        -3.47917
   C       -8.25438         2.73023        -2.37373
   F       -8.04023         4.04764        -2.50489
   C       -7.32381         1.94236        -1.75572
   C       -7.54593         0.55906        -1.61692
   C       -8.74929        -0.00834        -2.12593
   C       -8.99440        -1.39588        -1.99778
   C       -8.06559        -2.18813        -1.37786
   C       -6.86577        -1.61238        -0.87488
   C       -6.59886        -0.27963        -0.98664
   C       -6.03056        -2.67548        -0.28604
   O       -4.88853        -2.55200         0.12804
   C       -6.80093        -3.91596        -0.41233
   C       -8.04121        -3.62325        -1.09772
   C       -9.05451        -4.50223        -1.38687
   C      -10.24980        -4.14102        -2.04206
   N      -11.24210        -3.91542        -2.57392
   C       -9.06459        -5.87455        -1.06285
   N       -9.15422        -6.99421        -0.82155
   C       -6.34954        -5.17117        -0.06638
   C       -5.28282        -5.51004         0.77052
   S       -4.68134        -7.16056         0.68226
   C       -3.49599        -6.92030         1.92998
   C       -3.61397        -5.62535         2.45722
   C       -4.59747        -4.84371         1.78786
   S       -4.79654        -3.29182         2.49713
   C       -3.59512        -3.68741         3.69893
   C       -3.24801        -2.71662         4.73916
   O       -2.42955        -2.91415         5.60456
   O       -3.95397        -1.59039         4.59409
   C       -3.73937        -0.55829         5.55619
   C       -4.59400        -0.77332         6.79688
   C       -3.04874        -4.92941         3.54880
   C       -2.60797        -7.97351         2.22511
   C       -1.47254        -7.85625         2.96994
   C       -0.55287        -8.89542         3.26212
   C       -0.73827       -10.23409         2.97480
   C        0.18169       -11.23684         3.24207
   C        1.47962       -10.94391         3.85518
   C        1.87305        -9.71043         4.24569
   S        0.90744        -8.30990         4.05756
   C        2.14776       -12.19427         3.93587
   C        1.33590       -13.21096         3.42048
   C        1.97454       -14.47046         3.49862
   C        3.21243       -14.37532         4.04995
   S        3.66298       -12.76745         4.50136
   C        0.09135       -12.62985         2.98648
   C       -1.03740       -13.26697         2.44244
   C       -1.15797       -14.59243         2.14345
   C       -2.33491       -15.18203         1.65294
   S       -3.82619       -14.31064         1.38516
   C       -4.68650       -15.72754         0.82376
   C       -3.84210       -16.84638         0.88266
   C       -2.53911       -16.51890         1.33635
   S       -1.50395       -17.90295         1.45087
   C       -2.83240       -18.92066         0.95184
   C       -2.64656       -20.36895         0.82961
   O       -3.51899       -21.13425         0.50126
   O       -1.38629       -20.71658         1.11392
   C       -1.06593       -22.10582         1.03965
   C       -1.45724       -22.83556         2.31629
   C       -3.98595       -18.24219         0.69792
   C       -6.04338       -15.60462         0.47631
   C       -6.76661       -16.48180        -0.28393
   C       -6.21766       -17.44968        -1.14704
   C       -6.87584       -18.49259        -1.74107
   C       -6.34135       -19.12828        -2.96848
   O       -5.24641       -18.95960        -3.45719
   C       -7.45064       -19.95835        -3.48771
   C       -7.51590       -20.67968        -4.64390
   C       -8.70383       -21.38197        -4.95048
   C       -9.80593       -21.31927        -4.04951
   C      -10.98916       -22.01676        -4.36424
   C      -11.07352       -22.74488        -5.51773
   C       -9.98281       -22.80756        -6.40713
   C       -8.82208       -22.14088        -6.13081
   F      -10.09342       -23.52898        -7.53199
   F      -12.19955       -23.40852        -5.81472
   C       -9.70660       -20.57001        -2.85430
   C       -8.54422       -19.90346        -2.57603
   C       -8.14461       -19.09731        -1.42474
   C       -8.75622       -19.09586        -0.19492
   C       -8.15417       -18.56983         0.96594
   N       -7.66818       -18.20969         1.94210
   C       -9.98856       -19.72497         0.06935
   N      -11.00280       -20.19822         0.32559
   H      -10.60486         0.41838        -3.14959
   H       -6.41691         2.38607        -1.37572
   H       -9.91234        -1.79418        -2.39854
   H       -5.67897         0.13014        -0.59819
   H       -6.86034        -6.02134        -0.50106
   H       -4.01132         0.36704         5.04459
   H       -2.67804        -0.54115         5.82501
   H       -5.64478        -0.83460         6.52401
   H       -4.45253         0.05564         7.48412
   H       -4.30258        -1.69572         7.29344
   H       -2.30491        -5.30656         4.22515
   H       -2.85239        -8.91900         1.76141
   H       -1.20041        -6.88034         3.34405
   H       -1.67418       -10.50837         2.51042
   H        2.82983        -9.52479         4.70754
   H        1.56163       -15.40757         3.17459
   H        3.91149       -15.16915         4.22706
   H       -1.90198       -12.64213         2.25391
   H       -0.32919       -15.26994         2.27915
   H        0.01377       -22.13734         0.88001
   H       -1.58574       -22.54102         0.17971
   H       -0.97815       -22.37381         3.17656
   H       -1.14623       -23.87409         2.25053
   H       -2.53593       -22.79910         2.44906
   H       -4.89248       -18.74354         0.41632
   H       -6.55336       -14.74092         0.88285
   H       -7.84209       -16.35990        -0.29459
   H       -5.19818       -17.29291        -1.48449
   H       -6.67292       -20.71549        -5.31708
   H      -11.83250       -21.98158        -3.69236
   H       -7.99613       -22.19899        -6.82231
   H      -10.55643       -20.53589        -2.19118
*
