# ORCA input file
# SCF done       -241.798006030468          0.000723638082
! CAM-B3LYP def2-SVP def2/J RIJCOSX Grid4 TightSCF
%maxcore 5000
%tddft
    Mode sTDDFT
    Ethresh 5.0
    maxcore 5000
end

%pal
  nprocs 6
  end
* xyz 0 1
   C       -0.43095         8.99873        -7.73078
   C       -0.12242         8.43976        -8.94549
   C       -0.65939         8.88243       -10.17056
   N       -1.06424         9.19707       -11.19822
   C        0.80195         7.39253        -9.12745
   N        1.55061         6.54511        -9.33079
   C       -1.35676        10.10584        -7.51248
   C       -1.23153        10.54400        -6.16313
   C       -2.00416        11.54925        -5.65927
   C       -2.99775        12.13048        -6.47851
   C       -3.14746        11.67630        -7.82029
   C       -2.29766        10.66807        -8.33129
   C       -4.16899        12.23396        -8.61490
   C       -5.00797        13.18880        -8.10772
   C       -4.85888        13.63544        -6.78682
   C       -3.87246        13.12010        -5.99115
   C       -0.26926         9.67623        -5.46334
   O        0.21961         9.84741        -4.36577
   C        0.04249         8.58944        -6.42791
   C        0.56774         7.36675        -6.10135
   C        0.56726         6.80585        -4.79673
   C        1.54985         5.75184        -4.54628
   C        1.22295         4.61758        -3.79592
   C        2.11999         3.58333        -3.65076
   C        3.37127         3.65223        -4.26479
   C        3.70952         4.78210        -5.00993
   C        2.81250         5.81730        -5.14709
   C        4.34370         2.54790        -4.18442
   O        5.39010         2.49616        -4.77653
   O        3.95368         1.55130        -3.35276
   C       -0.45931         7.08547        -3.87997
   C       -1.75512         7.58305        -4.37853
   C       -2.41944         8.60558        -3.69865
   C       -3.55016         9.18320        -4.23727
   C       -4.04742         8.74612        -5.46290
   C       -3.44546         7.66052        -6.09896
   C       -2.32122         7.08037        -5.55345
   C       -5.16974         9.48542        -6.07439
   O       -5.74714        10.40914        -5.55516
   O       -5.48458         9.05210        -7.30495
   C       -0.35162         6.91336        -2.49108
   C        0.78223         7.01736        -1.70798
   C        0.78956         6.92097        -0.29623
   C        1.99116         7.21043         0.27557
   C        2.99088         7.54760        -0.65935
   S        2.36731         7.46163        -2.28704
   C        4.30627         7.87596        -0.38022
   C        5.35429         8.14961        -1.28211
   C        6.56113         8.33888        -0.67603
   C        6.53634         8.17301         0.73115
   S        4.88859         7.93038         1.26373
   C        7.63550         8.21279         1.56251
   C        7.76490         7.78831         2.90709
   C        8.78674         8.49292         3.69820
   C        8.85784         9.88657         3.64664
   C        9.77285        10.56767         4.41953
   C       10.64500         9.86875         5.25211
   C       10.59992         8.47802         5.28916
   C        9.68066         7.79921         4.51630
   C       11.60277        10.63961         6.07664
   O       11.73414        11.83707         6.03110
   O       12.33854         9.87246         6.89470
   C        7.08408         6.71801         3.49609
   C        6.31313         5.78473         2.66583
   C        6.85074         5.27565         1.48337
   C        6.07144         4.53983         0.61896
   C        4.72757         4.31273         0.91152
   C        4.20304         4.75658         2.12243
   C        4.99290         5.47214         2.99738
   C        3.84436         3.64404        -0.06786
   O        2.64558         3.79077        -0.12280
   O        4.51560         2.86529        -0.91919
   C        7.12081         6.57647         4.90566
   C        6.90292         5.45261         5.66006
   C        6.80084         5.42727         7.10465
   C        7.00844         6.47382         7.97106
   C        6.89530         6.36827         9.37258
   N        6.81721         6.35385        10.51838
   C        7.40385         7.78012         7.61816
   N        7.74555         8.86109         7.42624
   C        6.47923         4.05970         7.50310
   C        6.49688         3.23509         6.34251
   C        6.82473         4.05708         5.16401
   O        7.06449         3.65302         4.04470
   C        6.25397         1.89412         6.40438
   C        5.96559         1.30332         7.65541
   C        5.93888         2.12161         8.82097
   C        6.20050         3.50830         8.72526
   C        5.65451         1.52210        10.06453
   C        5.40972         0.17874        10.15488
   C        5.43598        -0.62597         9.00633
   C        5.70706        -0.07525         7.78303
   H       -1.88536        11.87351        -4.63631
   H       -2.43249        10.34635        -9.35203
   H       -4.27924        11.88564        -9.63188
   H       -5.79332        13.60360        -8.72228
   H       -5.53247        14.38576        -6.40164
   H       -3.75675        13.45587        -4.97147
   H        0.97668         6.74929        -6.89154
   H        0.24537         4.54080        -3.34384
   H        1.84285         2.70875        -3.08314
   H        4.68083         4.82005        -5.47890
   H        3.08407         6.69505        -5.71376
   H        4.62327         0.84925        -3.35882
   H       -1.99916         8.99120        -2.78228
   H       -4.04926        10.00153        -3.74116
   H       -3.85694         7.29183        -7.02534
   H       -1.85243         6.24374        -6.05191
   H       -6.21381         9.58233        -7.66215
   H       -1.28082         6.81635        -1.94130
   H       -0.09299         6.64136         0.25069
   H        2.19516         7.19366         1.33147
   H        5.18332         8.17840        -2.34380
   H        7.48022         8.53471        -1.19925
   H        8.52449         8.65684         1.12699
   H        8.16422        10.42849         3.02031
   H        9.82476        11.64555         4.40461
   H       11.28426         7.93955         5.92537
   H        9.66003         6.71893         4.52744
   H       12.93234        10.43144         7.41965
   H        7.88761         5.46477         1.24884
   H        6.48530         4.15845        -0.30149
   H        3.16982         4.54432         2.35285
   H        4.57796         5.83969         3.92499
   H        3.91906         2.44323        -1.56584
   H        7.33274         7.48880         5.44791
   H        6.28003         1.29150         5.50854
   H        6.17282         4.09851         9.62722
   H        5.63663         2.14570        10.94637
   H        5.19499        -0.27132        11.11256
   H        5.24102        -1.68429         9.09556
   H        5.72931        -0.68976         6.89478
*
