# ORCA input file
# SCF done       -190.465885066090          0.000437535524
! CAM-B3LYP def2-SVP def2/J RIJCOSX Grid4 TightSCF
%maxcore 5000
%tddft
    Mode sTDDFT
    Ethresh 5.0
    maxcore 5000
end

%pal
  nprocs 6
  end
* xyz 0 1
   C       26.72903        -6.87002        -1.23211
   S       26.55293        -7.58102        -2.91593
   C       24.99540        -8.43097        -2.49628
   C       24.36633        -7.58717        -1.38698
   C       25.52458        -7.31635        -0.41308
   C       23.26873        -8.45164        -0.72966
   O       23.52643        -9.25237         0.13560
   N       22.04793        -8.31471        -1.28323
   N       23.84707        -6.37408        -1.98169
   C       23.22639        -5.37517        -1.29673
   C       22.74258        -5.45305        -0.03375
   C       22.03046        -4.40547         0.61629
   C       21.56716        -4.59349         1.94147
   C       20.83484        -3.58563         2.67890
   N       20.40268        -3.86652         3.90786
   C       20.65542        -5.04047         4.44916
   C       21.40477        -6.02299         3.73254
   N       21.83012        -5.77935         2.51750
   C       21.68908        -7.27186         4.33758
   N       21.89104        -8.26507         4.87225
   C       20.17736        -5.29785         5.75387
   N       19.80237        -5.50979         6.81703
   C       20.52688        -2.31698         2.10880
   C       20.98481        -2.14750         0.76706
   C       21.71974        -3.15137         0.04024
   N       22.03333        -2.73715        -1.18967
   S       21.46455        -1.24335        -1.40616
   N       20.79527        -1.04937         0.04252
   C       19.79071        -1.24849         2.64773
   C       19.28416        -0.95018         3.89757
   C       19.41170        -1.52528         5.17837
   C       18.74477        -0.85932         6.16621
   C       18.04301         0.28032         5.72344
   S       18.28108         0.49536         4.00900
   C       17.24993         1.13580         6.47029
   C       16.97182         1.07859         7.85310
   C       16.13150         2.05710         8.28510
   C       15.68418         2.95048         7.27176
   S       16.41630         2.48530         5.74054
   C       14.79055         3.96370         7.48296
   C       14.22057         4.90744         6.57525
   C       13.15376         5.70516         7.04195
   C       12.55349         6.60650         6.20369
   C       13.00039         6.75643         4.87805
   C       14.06016         5.99201         4.40735
   C       14.65608         5.07942         5.24983
   C       12.21106         7.78430         4.24091
   C       11.27111         8.27108         5.16675
   C       11.36648         7.50942         6.46999
   C       10.14382         6.58570         6.68491
   C        8.79302         7.28160         6.78507
   C       11.59638         8.43644         7.67179
   C       12.86795         9.26488         7.52800
   C       10.45105         9.32048         4.82643
   C       10.51738         9.87672         3.54071
   C       11.43734         9.35710         2.62357
   C       12.28813         8.32631         2.96553
   C        9.62417        10.97579         3.22192
   C        9.48922        11.58443         2.04281
   C        8.55735        12.71133         1.80180
   S        9.53672        14.26180         1.47249
   C        8.78180        14.52268        -0.16507
   C        7.40445        13.86465        -0.08509
   C        7.66712        12.50417         0.57760
   C        6.88809        13.68819        -1.52760
   O        7.15750        12.72114        -2.20169
   N        6.17896        14.74014        -1.97430
   N        6.51648        14.71982         0.67664
   C        5.24189        14.27436         0.98905
   C        4.54663        14.66586         2.04814
   H       26.76848        -5.78704        -1.34702
   H       27.66933        -7.21607        -0.80856
   H       25.21940        -9.43532        -2.13728
   H       24.37515        -8.49043        -3.38863
   H       25.73196        -8.24358         0.12231
   H       25.25012        -6.55257         0.31377
   H       21.84399        -7.56085        -1.91553
   H       21.28212        -8.82224        -0.87097
   H       24.33828        -6.09669        -2.82101
   H       23.07680        -4.46799        -1.86466
   H       22.87531        -6.34518         0.56035
   H       19.58585        -0.48954         1.89938
   H       19.99025        -2.41368         5.33858
   H       18.74102        -1.16866         7.19598
   H       17.39360         0.31921         8.48644
   H       15.80632         2.16876         9.30460
   H       14.43021         4.03779         8.50318
   H       12.81553         5.58656         8.06177
   H       14.41562         6.10979         3.39486
   H       15.48682         4.49865         4.88415
   H       10.31838         6.01223         7.59830
   H       10.11069         5.87704         5.85298
   H        8.77751         8.00473         7.59633
   H        8.02089         6.54028         6.98057
   H        8.54741         7.78602         5.85469
   H       11.65603         7.83092         8.57884
   H       10.74403         9.10940         7.77322
   H       13.74098         8.62048         7.45146
   H       12.99309         9.91415         8.39159
   H       12.82122         9.88438         6.63500
   H        9.75776         9.73858         5.54160
   H       11.49847         9.77967         1.63321
   H       13.00796         7.95201         2.25303
   H        9.00205        11.30971         4.04464
   H       10.08510        11.29947         1.18804
   H        7.96434        12.92359         2.69477
   H        9.39823        14.04460        -0.92650
   H        8.72561        15.59290        -0.35421
   H        8.16280        11.86270        -0.15347
   H        6.73090        12.02784         0.87125
   H        5.93439        15.48732        -1.34651
   H        5.79469        14.71754        -2.90390
   H        6.98200        15.17755         1.45252
   H        4.81503        13.60959         0.24897
   H        4.96602        15.32694         2.78745
   H        3.53178        14.34993         2.19617
*
