# ORCA input file
# SCF done       -169.182173449725          0.000879471913
! CAM-B3LYP def2-SVP def2/J RIJCOSX Grid4 TightSCF
%maxcore 5000
%tddft
    Mode sTDDFT
    Ethresh 5.0
    maxcore 5000
end

%pal
  nprocs 6
  end
* xyz 0 1
   C       -1.44462         5.95873         0.82413
   S       -0.63162         4.98856        -0.32703
   C        0.79329         5.99057        -0.23348
   C        0.59851         7.03637         0.64515
   C       -0.68158         7.00189         1.25408
   C       -1.18497         8.02996         2.22941
   N       -2.27141         8.76443         1.59522
   C       -0.01854         8.90738         2.71897
   C        0.86365         9.33802         1.55253
   C        1.58663         8.13379         0.92428
   N        2.68153         7.61141         1.74126
   C        1.91558         5.61193        -1.03514
   C        3.18172         6.02978        -0.85486
   N        4.19834         5.62156        -1.68337
   C        5.52517         5.87505        -1.59682
   S        6.46383         5.62064        -3.04306
   C        7.88875         6.16612        -2.21083
   N        9.09151         6.15339        -2.89895
   O       10.09726         6.51638        -2.29919
   O        9.06878         5.78442        -4.06572
   C        7.64096         6.52079        -0.91065
   C        6.29801         6.35234        -0.52138
   C        5.83748         6.55605         0.82282
   C        6.51101         7.28349         1.74937
   C        6.08442         7.44977         3.08168
   C        6.78271         8.16744         4.01587
   C        6.44020         8.39691         5.37245
   C        7.34876         9.13424         6.06856
   C        8.47017         9.53165         5.30799
   S        8.31994         8.94679         3.66076
   C        9.57528        10.25115         5.70738
   C        9.87746        10.79707         6.97579
   C       11.07558        11.44076         7.03892
   C       11.79907        11.44320         5.82103
   S       10.87210        10.59182         4.58055
   C       13.02090        11.98969         5.55443
   N       13.58972        11.89344         4.32970
   C       14.76566        12.40743         3.90807
   S       15.81949        13.29036         4.96387
   C       16.93284        13.49404         3.64336
   N       18.09915        14.20316         3.90418
   O       18.89351        14.36049         2.99037
   O       18.24344        14.62447         5.04535
   C       16.50768        12.91670         2.47328
   C       15.25925        12.28412         2.59545
   C       14.52104        11.60112         1.57288
   C       14.93988        11.37570         0.31212
   C       14.20140        10.72649        -0.72340
   S       15.06599        10.53103        -2.22331
   C       13.68960         9.83899        -3.01327
   C       12.60347         9.80960        -2.16154
   C       12.89916        10.25989        -0.85096
   C       11.87536        10.20705         0.25821
   N       12.42435         9.55591         1.45096
   C       10.59204         9.50572        -0.20803
   C       10.19049         9.98246        -1.59048
   C       11.20996         9.45907        -2.61385
   N       10.98243         9.97134        -3.95555
   C       13.88805         9.36823        -4.36194
   C       13.20074         8.40819        -4.97223
   H       -2.44580         5.71920         1.11978
   H       -1.63082         7.51685         3.09213
   H       -1.94519         9.23296         0.75711
   H       -2.64277         9.46637         2.22596
   H        0.57371         8.34474         3.44487
   H       -0.41968         9.78499         3.23256
   H        1.60821        10.06457         1.88938
   H        0.25287         9.82296         0.78739
   H        2.03930         8.45629        -0.02461
   H        2.31433         7.20499         2.59525
   H        3.31474         8.36241         1.99848
   H        1.69943         4.89395        -1.81725
   H        3.44431         6.69391        -0.05040
   H        3.90662         5.12095        -2.51536
   H        8.42590         6.85360        -0.25714
   H        4.91956         6.07302         1.11998
   H        7.42558         7.79325         1.47628
   H        5.16105         6.97824         3.38979
   H        5.53053         8.00194         5.78996
   H        7.24847         9.39808         7.10638
   H        9.20067        10.69687         7.80516
   H       11.46852        11.91306         7.92136
   H       13.57184        12.52110         6.31575
   H       13.07134        11.36139         3.63426
   H       17.09056        12.96500         1.57229
   H       13.56285        11.19452         1.85026
   H       15.92019        11.71432         0.00305
   H       11.62577        11.23937         0.55225
   H       12.81940         8.65742         1.19357
   H       11.66882         9.37987         2.10741
   H        9.80063         9.69745         0.52246
   H       10.76835         8.42685        -0.25158
   H       10.16852        11.07648        -1.61699
   H        9.19441         9.61531        -1.85058
   H       11.11333         8.36619        -2.65704
   H       11.04468        10.98364        -3.96549
   H       10.06249         9.70313        -4.28446
   H       14.73457         9.82175        -4.86433
   H       12.37916         7.90017        -4.50614
   H       13.45190         8.10562        -5.97391
*
