# ORCA input file
# SCF done       -173.122092548474          0.000859030140
! CAM-B3LYP def2-SVP def2/J RIJCOSX Grid4 TightSCF
%maxcore 5000
%tddft
    Mode sTDDFT
    Ethresh 5.0
    maxcore 5000
end

%pal
  nprocs 6
  end
* xyz 0 1
   C       -2.79970        -9.06547        -4.80237
   S       -2.58454        -9.23585        -3.11872
   C       -0.92519        -9.70662        -3.31141
   C       -0.57151        -9.76910        -4.64938
   C       -1.66286        -9.38640        -5.50492
   C       -1.43277        -9.33547        -6.90846
   C       -2.55900        -8.89718        -7.79421
   F       -2.98335        -7.65166        -7.49589
   F       -2.23732        -8.88186        -9.09324
   F       -3.64331        -9.68850        -7.68029
   C       -0.20625        -9.65540        -7.41280
   C        0.85274       -10.03977        -6.55867
   C        0.68573       -10.09489        -5.20848
   N       -0.10283        -9.94816        -2.22121
   C       -0.09572        -9.15993        -1.10577
   S        0.23538        -9.85705         0.44357
   C        0.03033        -8.29511         1.17669
   N        0.23059        -8.20642         2.55719
   O        0.09077        -7.11972         3.08447
   O        0.53383        -9.24053         3.13048
   C       -0.28437        -7.31183         0.27842
   C       -0.34558        -7.78367        -1.04649
   C       -0.57480        -6.98469        -2.22016
   C       -1.15066        -5.76976        -2.26863
   C       -1.42460        -5.11041        -3.50244
   C       -1.97390        -3.84735        -3.66582
   C       -2.27881        -3.04390        -2.55455
   N       -2.51319        -2.43923        -1.60932
   C       -2.18592        -3.51203        -5.03033
   C       -1.79819        -4.55251        -5.86817
   S       -1.15915        -5.91610        -5.03860
   S       -2.04311        -4.27556        -7.55844
   C       -2.67823        -2.71354        -7.14832
   C       -2.69726        -2.41824        -5.78927
   C       -3.20765        -1.11799        -5.55154
   C       -3.34250        -0.49792        -4.30471
   N       -3.46653         0.05817        -3.30752
   C       -3.57503        -0.45815        -6.73211
   S       -3.28878        -1.45175        -8.15064
   C       -4.09642         0.84163        -6.80211
   C       -4.50588         1.51564        -7.92563
   C       -5.01088         2.84023        -7.95928
   C       -5.36161         3.27622        -9.20090
   C       -5.16165         2.32085       -10.21954
   S       -4.49292         0.84593        -9.54321
   C       -5.43398         2.42828       -11.56920
   C       -5.95062         3.53856       -12.27459
   C       -6.11445         3.31454       -13.60675
   C       -5.74564         2.01445       -14.04088
   S       -5.16397         1.09191       -12.66009
   C       -5.83882         1.55823       -15.32948
   C       -5.52673         0.28435       -15.85093
   C       -5.66952        -0.07032       -17.19564
   C       -5.28136        -1.42336       -17.35803
   C       -5.24127        -2.24423       -18.46294
   C       -4.80553        -3.56669       -18.27846
   C       -4.65950        -4.62060       -19.16912
   C       -4.18060        -5.76806       -18.46128
   C       -4.03081        -5.41867       -17.13170
   C       -4.40990        -4.04969       -16.96709
   C       -4.44530        -3.23801       -15.86619
   C       -4.88427        -1.90805       -16.04792
   C       -5.03456        -0.87093       -15.14948
   C       -3.89830        -7.07109       -19.01369
   C       -4.03661        -7.41795       -20.29036
   H       -3.74556        -8.73509        -5.18050
   H       -0.03286        -9.61069        -8.47665
   H        1.80654       -10.28181        -6.99978
   H        1.49841       -10.37243        -4.55481
   H        0.28809       -10.87605        -2.12185
   H       -0.42707        -6.28746         0.56984
   H       -0.25992        -7.42831        -3.15560
   H       -1.47343        -5.25521        -1.37455
   H       -4.18251         1.36138        -5.85614
   H       -5.09620         3.42368        -7.05990
   H       -5.76325         4.25193        -9.40799
   H       -6.18330         4.46529       -11.78173
   H       -6.49569         4.04326       -14.30075
   H       -6.21399         2.27524       -16.05077
   H       -6.01885         0.57572       -17.98013
   H       -5.53532        -1.89222       -19.44178
   H       -4.87189        -4.58434       -20.22189
   H       -3.68785        -6.06191       -16.34196
   H       -4.15340        -3.58749       -14.88602
   H       -4.82214        -0.91933       -14.09813
   H       -3.54678        -7.80212       -18.29606
   H       -4.38221        -6.72717       -21.04018
   H       -3.80673        -8.41251       -20.63113
*
