# ORCA input file
# SCF done       -178.699435511866          0.000218417173
! CAM-B3LYP def2-SVP def2/J RIJCOSX Grid4 TightSCF
%maxcore 5000
%tddft
    Mode sTDDFT
    Ethresh 5.0
    maxcore 5000
end

%pal
  nprocs 6
  end
* xyz 0 1
   C       -4.35825        -2.14795         0.75791
   C       -3.54752        -2.81224        -0.12533
   C       -3.06279        -4.12208         0.07276
   N       -2.63934        -5.18497         0.16962
   C       -3.08972        -2.29910        -1.35689
   N       -2.67172        -1.95932        -2.37112
   C       -4.82817        -2.66450         2.03640
   C       -5.68094        -1.70474         2.63925
   C       -6.28047        -1.91039         3.85838
   C       -6.01778        -3.11227         4.52258
   C       -5.16195        -4.06276         3.91548
   C       -4.56277        -3.86048         2.67852
   S       -4.97908        -5.47138         4.91321
   C       -6.02692        -4.79008         6.10904
   C       -6.49623        -3.56568         5.78415
   C       -5.80626        -0.53395         1.75338
   O       -6.57902         0.38921         1.87148
   C       -4.88079        -0.79950         0.61181
   C       -4.65149         0.07663        -0.39541
   C       -5.02140         1.46417        -0.34013
   N       -5.38424         2.09300        -1.46144
   C       -5.78447         3.33161        -1.37975
   C       -5.98370         3.91587        -0.10249
   N       -5.35632         3.30609         0.89822
   N       -4.81754         2.15780         0.79727
   C       -6.70209         5.14564         0.15659
   C       -7.48791         5.74733        -0.83665
   C       -8.13003         6.92847        -0.55669
   C       -8.00724         7.52831         0.70901
   C       -7.24241         6.92819         1.70208
   C       -6.59718         5.74372         1.41946
   C       -8.78795         8.74224         0.71798
   C       -9.39656         8.90035        -0.54173
   C       -8.97587         7.78638        -1.47488
   C       -8.03994         8.29765        -2.59627
   C       -8.62992         9.34377        -3.53254
   C      -10.17768         7.01916        -2.04465
   C      -11.04240         6.40285        -0.95088
   C      -10.25266         9.94896        -0.76551
   C      -10.48443        10.90287         0.24470
   C       -9.84687        10.73652         1.48628
   C       -9.01674         9.66557         1.73052
   C      -11.35035        12.00902        -0.04320
   C      -11.62699        13.05554         0.78050
   C      -12.45196        14.13776         0.43083
   C      -12.70109        15.20380         1.26002
   C      -13.48672        16.34836         0.98528
   C      -13.53629        17.25468         2.00274
   C      -12.79846        16.87647         3.14374
   S      -12.03200        15.32433         2.88096
   C      -12.64632        17.56107         4.33516
   C      -13.17128        18.82041         4.69723
   C      -12.83191        19.21692         5.95509
   C      -12.02314        18.29720         6.67055
   S      -11.70740        16.89842         5.65193
   C      -11.56820        18.47467         7.95158
   C      -10.78181        17.61389         8.74650
   C      -10.37961        17.90383        10.05828
   C       -9.61857        16.82163        10.55519
   C       -9.00336        16.60600        11.77238
   C       -8.31734        15.39799        11.95082
   C       -7.60989        14.88380        13.03369
   C       -7.10045        13.59731        12.69337
   C       -7.49265        13.31078        11.39380
   C       -8.25420        14.40729        10.89240
   C       -8.86257        14.61696         9.68055
   C       -9.55415        15.82989         9.49799
   C      -10.25927        16.32177         8.41244
   C       -6.31803        12.78381        13.59396
   C       -5.81880        11.58272        13.31515
   H       -6.92782        -1.16170         4.28791
   H       -3.92124        -4.61654         2.25770
   H       -6.22937        -5.35864         6.99589
   H       -7.15884        -2.99046         6.40517
   H       -4.12906        -0.22193        -1.29333
   H       -5.91307         3.86635        -2.30996
   H       -7.59928         5.27647        -1.80187
   H       -7.15171         7.38295         2.67685
   H       -5.98934         5.25385         2.16399
   H       -7.72380         7.43248        -3.18379
   H       -7.14855         8.71729        -2.12204
   H       -9.53187         8.97976        -4.01746
   H       -7.90417         9.58188        -4.30745
   H       -8.86004        10.25908        -2.99449
   H       -9.81301         6.23167        -2.70785
   H      -10.78817         7.70111        -2.63798
   H      -10.46777         5.69513        -0.35746
   H      -11.88644         5.87701        -1.39141
   H      -11.42544         7.17431        -0.28635
   H      -10.76548        10.05830        -1.70988
   H      -10.01955        11.45448         2.27243
   H       -8.55136         9.54409         2.69738
   H      -11.80465        12.00723        -1.02720
   H      -11.18941        13.09766         1.76890
   H      -12.91082        14.14772        -0.54917
   H      -13.98809        16.46726         0.04073
   H      -14.08382        18.17954         1.96261
   H      -13.77890        19.39754         4.02341
   H      -13.13983        20.14721         6.39996
   H      -11.85929        19.40645         8.42302
   H      -10.61369        18.80294        10.59866
   H       -9.04687        17.33962        12.56524
   H       -7.46380        15.37009        13.98217
   H       -7.27113        12.41784        10.83990
   H       -8.82144        13.88497         8.88619
   H      -10.39316        15.81531         7.47528
   H       -6.14248        13.22079        14.56951
   H       -5.96646        11.10973        12.35955
   H       -5.24212        11.03036        14.03659
*
