# ORCA input file
# SCF done       -170.532726524943          0.000555923916
! CAM-B3LYP def2-SVP def2/J RIJCOSX Grid4 TightSCF
%maxcore 5000
%tddft
    Mode sTDDFT
    Ethresh 5.0
    maxcore 5000
end

%pal
  nprocs 6
  end
* xyz 0 1
   C        0.64395         1.26469        -0.36117
   S       -0.52172         0.05811        -0.07101
   C        0.67798        -1.19703         0.07601
   C        1.95895        -0.65255        -0.06593
   C        1.92611         0.75785        -0.33247
   C        3.13113         1.46712        -0.52058
   C        4.33900         0.82845        -0.42306
   C        5.58339         1.57234        -0.61645
   C        5.73251         2.57539        -1.47088
   C        4.37885        -0.56561        -0.09833
   C        5.70000        -1.25963         0.04402
   C        3.22007        -1.27052         0.06970
   C        0.19722        -2.51777         0.27519
   C        0.87852        -3.67514         0.09781
   C        0.33161        -4.97251         0.28846
   C       -0.92284        -5.35257         0.72050
   C       -1.06839        -6.74238         0.74041
   C        0.08671        -7.43997         0.32285
   S        1.35977        -6.35601        -0.09010
   C       -0.22180        -8.79839         0.38118
   C       -1.55627        -8.89118         0.82680
   N       -2.05747        -7.63723         1.05515
   C       -3.37532        -7.33612         1.53830
   C       -2.03210       -10.20222         0.92270
   C       -1.06635       -11.12200         0.58356
   S        0.45366       -10.36053         0.10548
   C       -1.15611       -12.54711         0.52575
   S       -0.02255       -13.37636        -0.51731
   C       -0.79272       -14.89888        -0.22209
   O       -0.33547       -16.02249        -0.78423
   C        0.80655       -15.91603        -1.60485
   C       -1.86855       -14.78869         0.63685
   C       -2.70411       -15.90955         1.08650
   O       -3.56215       -15.78738         1.93825
   C       -2.45635       -17.24524         0.43216
   C       -2.05692       -13.43035         1.08514
   C       -3.08010       -13.07697         2.04172
   C       -2.90472       -12.20300         3.04935
   C       -3.90597       -11.84392         3.99851
   C       -5.15544       -12.38652         4.20242
   C       -5.84303       -11.73364         5.22989
   C       -5.11551       -10.67620         5.81836
   S       -3.56491       -10.49794         5.08644
   C       -5.92457       -10.14142         6.81915
   C       -7.12336       -10.88510         6.81409
   N       -7.06890       -11.84141         5.83454
   C       -8.07030       -12.83082         5.55331
   C       -8.04081       -10.47104         7.78053
   C       -7.56495        -9.41460         8.53595
   S       -5.94677        -8.91925         8.03605
   C       -8.26240        -8.78793         9.59804
   S       -9.85093        -9.36429         9.99444
   C      -10.03587        -8.27000        11.32637
   C       -8.91521        -7.44892        11.43376
   C       -7.90281        -7.74495        10.46288
   C       -6.71399        -6.99622        10.47022
   C       -6.51601        -5.98095        11.37451
   C       -5.26586        -5.22547        11.36184
   C       -4.08795        -5.72012        11.00259
   C       -7.55052        -5.64681        12.30294
   C       -7.36157        -4.51428        13.26697
   C       -8.70934        -6.36809        12.31945
   C      -11.23990        -8.36927        12.10003
   C      -11.41306        -7.99848        13.36889
   H        0.33813         2.27569        -0.54197
   H        3.08444         2.52803        -0.71490
   H        6.42599         1.25867        -0.01506
   H        4.93293         2.90025        -2.11572
   H        6.66743         3.10019        -1.57033
   H        6.31083        -1.10978        -0.84525
   H        5.55628        -2.32723         0.19137
   H        6.24974        -0.86924         0.90090
   H        3.27458        -2.31363         0.33632
   H       -0.84855        -2.57495         0.54881
   H        1.89938        -3.65611        -0.25015
   H       -1.68762        -4.65166         0.99911
   H       -3.65976        -8.06149         2.30179
   H       -4.11073        -7.36935         0.72844
   H       -3.37896        -6.34034         1.97786
   H       -3.03076       -10.47545         1.20588
   H        1.01781       -16.92275        -1.95923
   H        1.66170       -15.53232        -1.04006
   H        0.61836       -15.25315        -2.45506
   H       -1.45700       -17.59601         0.67784
   H       -2.52472       -17.16105        -0.64912
   H       -3.19160       -17.95841         0.79685
   H       -4.00742       -13.62154         1.95650
   H       -1.95065       -11.70681         3.16918
   H       -5.52377       -13.23016         3.64939
   H       -9.05421       -12.42855         5.79225
   H       -7.90695       -13.73871         6.14253
   H       -8.03792       -13.08969         4.49537
   H       -9.00852       -10.90865         7.94816
   H       -5.95249        -7.20219         9.73705
   H       -5.32830        -4.19414        11.68142
   H       -3.96229        -6.74757        10.70500
   H       -3.19877        -5.11287        11.00192
   H       -6.45136        -4.65279        13.84888
   H       -8.20491        -4.45179        13.95054
   H       -7.28298        -3.56526        12.73626
   H       -9.49840        -6.09626        13.00229
   H      -12.06291        -8.84484        11.57859
   H      -10.62112        -7.58795        13.96833
   H      -12.36449        -8.12676        13.85471
*
