# ORCA input file
# SCF done       -172.733062069028          0.000924538862
! CAM-B3LYP def2-SVP def2/J RIJCOSX Grid4 TightSCF
%maxcore 5000
%tddft
    Mode sTDDFT
    Ethresh 5.0
    maxcore 5000
end

%pal
  nprocs 6
  end
* xyz 0 1
   C        1.43437        -3.62712        -1.99843
   O        2.51723        -3.98771        -2.44256
   C        0.60298        -2.56002        -2.53104
   C       -0.48366        -2.31196        -1.70534
   C       -1.30387        -1.27869        -2.19507
   C       -0.81450        -0.77976        -3.36780
   S        0.63570        -1.53415        -3.90058
   C       -0.42898        -3.23422        -0.58386
   C       -1.36968        -3.28411         0.41384
   C       -2.45116        -2.37965         0.44966
   N       -3.33648        -1.65113         0.50331
   C       -1.40737        -4.19604         1.48575
   N       -1.51956        -4.91076         2.37821
   C        0.73755        -4.07906        -0.77615
   C        1.14041        -5.04070         0.12682
   C        2.09007        -6.07007        -0.00947
   C        2.56382        -6.57522        -1.20750
   C        3.46467        -7.61765        -1.33831
   C        3.87031        -8.42595        -0.17936
   C        3.52531        -8.13736         1.09521
   S        2.57363        -6.78294         1.54182
   C        4.61886        -9.50537        -0.72026
   C        4.69986        -9.37845        -2.11195
   C        5.45025       -10.42307        -2.69892
   C        5.90380       -11.29686        -1.76501
   S        5.44994       -10.89130        -0.14013
   C        4.02046        -8.18472        -2.51555
   C        3.96355        -7.65812        -3.82784
   C        3.74030        -6.33655        -4.06520
   C        3.48676        -5.68103        -5.28895
   N        3.14325        -4.34686        -5.23582
   C        2.85827        -3.92458        -6.48759
   C        2.43772        -2.83149        -7.22981
   C        2.39811        -3.26056        -8.56615
   N        2.78524        -4.58763        -8.63204
   C        3.06679        -5.02112        -7.37491
   C        3.45318        -6.12262        -6.62341
   C        2.03596        -2.53771        -9.72315
   C        1.66135        -1.22996        -9.70704
   C        1.27130        -0.45122       -10.82367
   C        0.92234         0.87677       -10.66701
   C        0.48926         1.72032       -11.67832
   C        0.34351         1.24812       -13.05443
   C        0.64717        -0.00709       -13.45344
   S        1.22929        -1.22840       -12.39776
   C       -0.18315         2.35545       -13.77617
   C       -0.37966         3.44093       -12.92011
   C       -0.90147         4.55853       -13.60833
   C       -1.08665         4.29632       -14.92903
   S       -0.63847         2.69354       -15.39748
   C        0.04729         3.06505       -11.59420
   C        0.01651         3.78743       -10.39568
   C       -0.57163         5.00278       -10.15779
   C       -0.57001         5.65427        -8.91650
   C       -0.25700         5.20101        -7.65300
   C        0.10311         6.22117        -6.62744
   O       -0.01070         7.42360        -6.72284
   C        0.65308         5.43617        -5.52036
   C        0.55897         4.07892        -5.78484
   C       -0.11632         3.89596        -7.06268
   C       -0.68238         2.69725        -7.44405
   C       -0.41152         1.50040        -6.76367
   N       -0.16088         0.49739        -6.25885
   C       -1.60766         2.54256        -8.49175
   N       -2.39720         2.35945        -9.30541
   C        1.07037         3.28492        -4.74065
   C        1.54216         4.06209        -3.72388
   S        1.36802         5.75526        -4.00125
   H       -2.19844        -0.91795        -1.72260
   H       -1.22963        -0.00009        -3.97589
   H        0.66286        -5.00579         1.09938
   H        2.13739        -6.15226        -2.10190
   H        3.84240        -8.73911         1.93253
   H        5.64231       -10.52464        -3.75155
   H        6.49416       -12.17864        -1.92041
   H        4.13215        -8.34297        -4.64785
   H        3.73532        -5.66957        -3.21604
   H        3.02562        -3.85184        -4.35995
   H        2.17491        -1.85804        -6.87022
   H        2.83511        -5.12382        -9.48095
   H        3.69172        -7.11050        -6.96217
   H        2.06408        -3.07045       -10.66580
   H        1.63786        -0.71283        -8.75862
   H        0.98575         1.26165        -9.65853
   H        0.53407        -0.33865       -14.47332
   H       -1.13004         5.51206       -13.16982
   H       -1.46886         4.95841       -15.68119
   H        0.54615         3.32828        -9.57213
   H       -1.02719         5.53348       -10.97956
   H       -0.78072         6.71991        -8.94013
   H        1.10436         2.21110        -4.73431
   H        1.98925         3.73051        -2.80717
*
