# ORCA input file
# SCF done       -189.838331457692          0.000591749969
! CAM-B3LYP def2-SVP def2/J RIJCOSX Grid4 TightSCF
%maxcore 5000
%tddft
    Mode sTDDFT
    Ethresh 5.0
    maxcore 5000
end

%pal
  nprocs 6
  end
* xyz 0 1
   C       -2.90633        -3.05452       -16.38127
   O       -1.73466        -3.11232       -16.69398
   C       -4.03181        -2.76514       -17.26535
   C       -5.23580        -2.77795       -16.57836
   C       -6.33758        -2.50162       -17.41207
   C       -5.93426        -2.29005       -18.69707
   S       -4.22943        -2.41809       -18.92648
   C       -4.97311        -3.07851       -15.18404
   C       -5.95083        -3.15692       -14.22550
   C       -7.31025        -2.94952       -14.54256
   N       -8.42319        -2.78574       -14.77009
   C       -5.78083        -3.43495       -12.85490
   N       -5.74085        -3.65113       -11.72708
   C       -3.53344        -3.25751       -15.04671
   C       -2.93398        -3.57016       -13.85514
   C       -1.58910        -3.77707       -13.50156
   S       -1.27864        -4.18772       -11.82019
   C        0.42524        -4.27822       -12.10597
   C        0.71976        -4.00051       -13.43450
   C       -0.39445        -3.72387       -14.20753
   C        1.33564        -4.60452       -11.07335
   C        1.06323        -4.90314        -9.75221
   C        2.19820        -5.19158        -9.00232
   C        3.37257        -5.11922        -9.73086
   S        3.04985        -4.68176       -11.38166
   C        4.69528        -5.36284        -9.28079
   S        6.06407        -5.17208       -10.33765
   C        7.17197        -5.65827        -9.08478
   C        6.48281        -5.94127        -7.91850
   C        5.10621        -5.77521        -8.02641
   C        8.56067        -5.71818        -9.36944
   C        9.51038        -6.16119        -8.50895
   C       10.89772        -6.23152        -8.79247
   N       11.77549        -6.76874        -7.86972
   C       13.03047        -6.72687        -8.38660
   C       14.36121        -7.04430        -8.13544
   C       15.07695        -6.63954        -9.26814
   N       14.20242        -6.08884       -10.18584
   C       12.94530        -6.13549        -9.67220
   C       11.61235        -5.82851        -9.92692
   C       16.46625        -6.71814        -9.54335
   C       17.38182        -7.28871        -8.72208
   C       18.77668        -7.36009        -8.97106
   S       19.79893        -8.19008        -7.83050
   C       21.22305        -7.84064        -8.76555
   C       20.89395        -7.11798        -9.89749
   C       19.53290        -6.85310       -10.01275
   C       22.50680        -8.27280        -8.34332
   C       23.73236        -7.99804        -8.92270
   C       24.80579        -8.57095        -8.24827
   C       24.43190        -9.30416        -7.13711
   S       22.70259        -9.27108        -6.93442
   C       25.26583       -10.01143        -6.23517
   S       24.60544       -10.97428        -4.95427
   C       26.19866       -11.43365        -4.40566
   C       27.17062       -10.83857        -5.19826
   C       26.65321       -10.05168        -6.21538
   C       26.34052       -12.28156        -3.28850
   C       27.53004       -12.75743        -2.81998
   C       27.60694       -13.56567        -1.67303
   C       28.71064       -14.05965        -1.03513
   C       28.50028       -15.13524        -0.01922
   O       27.43883       -15.50322         0.43330
   C       29.84326       -15.63622         0.25081
   C       30.79503       -14.90855        -0.45062
   C       30.13434       -13.84356        -1.19196
   C       30.81634       -12.79528        -1.75779
   C       32.22733       -12.75842        -1.77787
   N       33.37272       -12.70043        -1.82691
   C       30.28056       -11.61513        -2.30613
   N       29.94934       -10.60796        -2.74898
   C       32.10548       -15.37142        -0.22101
   C       32.10548       -16.43142         0.63666
   S       30.53635       -16.88392         1.19052
   H       -7.36271        -2.45978       -17.09489
   H       -6.55388        -2.06084       -19.54189
   H       -3.60874        -3.68468       -13.01446
   H        1.72887        -4.00691       -13.80781
   H       -0.35892        -3.48965       -15.25524
   H        0.06146        -4.90867        -9.36000
   H        2.17349        -5.44475        -7.95841
   H        6.96763        -6.25564        -7.01224
   H        4.42032        -5.95324        -7.21806
   H        8.85434        -5.39434       -10.35730
   H        9.21230        -6.50508        -7.52706
   H       11.50519        -7.13790        -6.97463
   H       14.77570        -7.49979        -7.25961
   H       14.47244        -5.72835       -11.08457
   H       11.19594        -5.37203       -10.80149
   H       16.79061        -6.28754       -10.48160
   H       17.04881        -7.73493        -7.79628
   H       21.62556        -6.79821       -10.61737
   H       19.10798        -6.30090       -10.83124
   H       23.83892        -7.39356        -9.80475
   H       25.82888        -8.46093        -8.55849
   H       28.22324       -10.95576        -5.01561
   H       27.25994        -9.51095        -6.91840
   H       25.43003       -12.55086        -2.76781
   H       28.43555       -12.51584        -3.35041
   H       26.66516       -13.90028        -1.24788
   H       32.99622       -14.96187        -0.65939
   H       32.95666       -16.98266         0.98574
*
