# ORCA input file
# SCF done       -221.199661598981          0.000642846398
! CAM-B3LYP def2-SVP def2/J RIJCOSX Grid4 TightSCF
%maxcore 5000
%tddft
    Mode sTDDFT
    Ethresh 5.0
    maxcore 5000
end

%pal
  nprocs 6
  end
* xyz 0 1
   C       -0.27650        -8.83280        -0.68103
   C        0.21080        -7.84766         0.16597
   F        0.54923        -6.65785        -0.35451
   C        0.34612        -8.05966         1.53568
   F        0.83034        -7.08078         2.31387
   C       -0.02381        -9.26979         2.10417
   C       -0.52593       -10.24285         1.26514
   C       -0.64654       -10.04230        -0.11927
   C       -1.18420       -11.26399        -0.72809
   C       -1.04774       -11.56584        -2.06778
   C       -0.48072       -10.69489        -3.01183
   N       -0.01234       -10.02856        -3.82398
   C       -1.34690       -12.82564        -2.61848
   N       -1.55738       -13.84476        -3.10493
   C       -1.59603       -12.13108         0.33956
   C       -1.04156       -11.59215         1.60376
   O       -1.04397       -12.12490         2.69075
   C       -2.39028       -13.25802         0.42792
   C       -3.38867       -13.73405        -0.43296
   C       -3.91040       -12.99963        -1.48610
   C       -4.92099       -13.41007        -2.32812
   C       -5.49994       -14.75632        -2.23642
   C       -5.19304       -15.63239        -1.25301
   S       -4.05568       -15.31582        -0.00917
   C       -6.35183       -14.86941        -3.36677
   C       -6.29148       -13.69350        -4.12941
   C       -7.11184       -13.76201        -5.27917
   C       -7.75595       -14.95324        -5.36083
   S       -7.40039       -16.03988        -4.05502
   C       -5.43045       -12.75733        -3.48057
   C       -5.01455       -11.48698        -3.95086
   C       -4.60096       -10.48700        -3.12740
   C       -3.80518        -9.34688        -3.46365
   C       -3.15765        -9.22908        -4.67910
   C       -2.20765        -8.21564        -4.88172
   C       -1.36403        -7.93924        -5.95465
   C       -1.28765        -8.59403        -7.28860
   C       -0.68262       -10.00924        -7.18471
   N        0.71404        -9.89639        -6.80890
   C       -2.64910        -8.63150        -8.00326
   N       -2.47112        -9.06328        -9.37874
   C       -0.51171        -6.85088        -5.53912
   C        0.53761        -6.27037        -6.14974
   C        1.26562        -5.12958        -5.52649
   C        0.82413        -4.79223        -4.13278
   C       -0.20321        -5.40979        -3.52236
   C       -0.90654        -6.44567        -4.18323
   C       -1.93086        -7.28104        -3.79445
   C       -2.66135        -7.37624        -2.58572
   C       -3.56013        -8.37693        -2.43089
   C        1.01810        -3.90476        -6.36931
   C        1.97639        -3.05401        -6.74796
   C        1.78179        -1.85669        -7.52851
   C        0.65393        -1.57014        -8.25551
   C        0.46646        -0.41056        -9.00716
   C        1.49537         0.62612        -9.07586
   C        2.69790         0.54222        -8.45913
   S        3.16680        -0.78759        -7.49063
   C        0.95473         1.64321        -9.90807
   C       -0.31776         1.27640       -10.35134
   C       -0.91179         2.29247       -11.13118
   C       -0.08692         3.36402       -11.26988
   S        1.43400         3.19551       -10.46543
   C       -0.63229        -0.02900        -9.81517
   C       -1.76204        -0.82665       -10.04482
   C       -2.74002        -0.62417       -10.98716
   C       -3.78462        -1.54135       -11.12856
   C       -4.81223        -1.61030       -12.04285
   C       -5.52666        -2.90030       -12.15833
   O       -5.43750        -3.85459       -11.41485
   C       -6.33095        -2.80121       -13.39689
   C       -6.17099        -1.51847       -13.94661
   C       -6.79703        -1.19754       -15.13977
   C       -7.57506        -2.17074       -15.75066
   C       -7.73818        -3.43646       -15.19074
   C       -7.11136        -3.76672       -13.99966
   F       -8.50334        -4.34481       -15.81198
   F       -8.17961        -1.88180       -16.91015
   C       -5.31839        -0.72159       -13.05467
   C       -5.21084         0.64625       -13.12509
   C       -4.61552         1.47626       -12.15829
   N       -4.18694         2.23607       -11.41005
   C       -5.77139         1.43316       -14.15242
   N       -6.18403         2.13543       -14.96182
   H       -0.36723        -8.61724        -1.73277
   H        0.07677        -9.43520         3.16481
   H       -2.28232       -13.78974         1.36901
   H       -3.48836       -12.01875        -1.63629
   H       -5.64254       -16.61079        -1.18675
   H       -7.22011       -12.97466        -6.00273
   H       -8.43910       -15.28088        -6.11993
   H       -5.00148       -11.35158        -5.02451
   H       -4.86016       -10.56666        -2.07817
   H       -3.33227        -9.96161        -5.45077
   H       -0.60247        -8.01654        -7.91718
   H       -0.74722       -10.47315        -8.17155
   H       -1.27804       -10.60468        -6.47527
   H        0.77711        -9.60725        -5.83648
   H        1.17236       -10.79742        -6.88831
   H       -3.11762        -7.63567        -7.91408
   H       -3.30915        -9.35438        -7.52065
   H       -1.89803        -8.39691        -9.88625
   H       -3.36704        -9.12061        -9.84986
   H        0.88127        -6.58665        -7.12445
   H        2.34234        -5.34223        -5.52700
   H        1.37318        -4.00090        -3.64655
   H       -0.48263        -5.14162        -2.51433
   H       -2.47758        -6.66343        -1.79487
   H       -4.10920        -8.47891        -1.50496
   H       -0.02028        -3.72740        -6.60757
   H        2.99829        -3.23712        -6.43978
   H       -0.13546        -2.30739        -8.24508
   H        3.44720         1.31343        -8.54063
   H       -1.90764         2.27459       -11.53381
   H       -0.28195         4.27254       -11.80505
   H       -1.85110        -1.71586        -9.43158
   H       -2.66395         0.21467       -11.65624
   H       -3.75139        -2.40633       -10.47060
   H       -6.70183        -0.23653       -15.61759
   H       -7.23247        -4.74571       -13.56441
*
