# ORCA input file
# SCF done       -210.731997171337          0.000633283237
! CAM-B3LYP def2-SVP def2/J RIJCOSX Grid4 TightSCF
%maxcore 5000
%tddft
    Mode sTDDFT
    Ethresh 5.0
    maxcore 5000
end

%pal
  nprocs 6
  end
* xyz 0 1
   C        2.14610         2.89696        -2.79162
   C        3.46625         2.91770        -3.21698
   C        4.15238         1.74141        -3.48168
   C        3.53944         0.50795        -3.31992
   C        2.22195         0.47523        -2.89477
   C        1.51749         1.67199        -2.63415
   C        0.15630         1.33968        -2.23014
   C       -0.79023         2.23403        -1.80215
   C       -0.56772         3.62149        -1.67665
   N       -0.45863         4.75699        -1.54735
   C       -2.10076         1.91440        -1.39083
   N       -3.18012         1.73736        -1.04008
   C        0.01017        -0.10024        -2.38767
   C        1.34086        -0.64628        -2.60688
   C        1.75517        -1.92049        -2.31586
   C        0.93654        -2.91132        -1.73671
   N        0.34418        -3.74252        -1.21098
   C        3.08254        -2.37024        -2.46476
   N        4.13962        -2.80128        -2.58682
   C       -1.19113        -0.76316        -2.39679
   C       -1.47217        -2.02665        -2.94968
   S       -2.90092        -2.88357        -2.42719
   C       -2.57364        -4.19054        -3.51348
   C       -1.44351        -3.93121        -4.27736
   C       -0.82531        -2.73638        -3.95517
   C       -3.36731        -5.36057        -3.51440
   C       -4.43010        -5.66408        -2.68475
   C       -4.94174        -6.94074        -2.88477
   C       -4.28876        -7.64534        -3.88063
   S       -3.02042        -6.69076        -4.58579
   C       -4.52399        -8.98782        -4.27986
   S       -3.82850        -9.66301        -5.72473
   C       -4.50296       -11.22872        -5.37952
   C       -5.23445       -11.19366        -4.20794
   C       -5.25572        -9.94224        -3.59957
   C       -4.24989       -12.33639        -6.23920
   C       -4.40201       -13.62025        -5.84628
   C       -4.19888       -14.77033        -6.65757
   S       -4.34632       -14.70716        -8.38956
   C       -4.18752       -16.41729        -8.49616
   C       -4.02571       -17.01923        -7.28975
   C       -3.85006       -18.48924        -7.10311
   C       -4.00423       -16.07605        -6.21690
   C       -3.72785       -16.42987        -4.85143
   C       -3.05383       -15.63030        -3.99550
   C       -2.77663       -15.93278        -2.63326
   C       -2.02363       -15.10698        -1.86805
   C       -1.69413       -15.28367        -0.49810
   S       -0.61233       -14.14167         0.25166
   C       -0.72392       -14.96187         1.78100
   C       -1.56282       -16.05493         1.68809
   C       -2.10004       -16.23740         0.41613
   C       -0.00723       -14.48501         2.90748
   C        0.90631       -13.44898         2.94581
   C        1.44013       -13.22630         4.21010
   C        0.94165       -14.08119         5.17625
   S       -0.20902       -15.19166         4.48310
   C        1.26086       -14.10528         6.55654
   S        0.43140       -15.13825         7.67300
   C        1.37744       -14.54001         9.01289
   C        2.28655       -13.58748         8.57294
   C        2.22062       -13.34396         7.21118
   C        1.16020       -15.05942        10.30361
   C        1.81607       -14.65459        11.42993
   C        1.59070       -15.13089        12.73773
   C        1.00553       -16.29841        13.16366
   C        0.43826       -16.47245        14.49542
   C        0.65689       -15.70185        15.60764
   C        1.52160       -14.59059        15.69348
   N        2.20531       -13.68192        15.85694
   C        0.06939       -15.94805        16.86671
   N       -0.37076       -16.08402        17.91835
   C       -0.42666       -17.64459        14.43706
   C       -0.26946       -18.26230        13.17670
   C       -1.00173       -19.39032        12.84656
   C       -1.88845       -19.90139        13.78253
   C       -2.03685       -19.30248        15.02495
   C       -1.31066       -18.17085        15.36545
   C        0.73484       -17.52301        12.42470
   C        1.45922       -18.03181        11.37768
   C        1.19728       -19.27639        10.77001
   N        1.02464       -20.27004        10.22116
   C        2.59970       -17.41874        10.82153
   N        3.55355       -16.99232        10.34615
   H        1.62949         3.82168        -2.59489
   H        3.96368         3.86679        -3.34600
   H        5.17681         1.78336        -3.81871
   H        4.08007        -0.39971        -3.53425
   H       -2.04894        -0.24727        -1.98632
   H       -1.08928        -4.61438        -5.02892
   H        0.04856        -2.36464        -4.46123
   H       -4.80253        -4.97055        -1.95168
   H       -5.76755        -7.34590        -2.32960
   H       -5.75283       -12.04992        -3.81622
   H       -5.76888        -9.73657        -2.67787
   H       -3.87513       -12.11781        -7.23004
   H       -4.69680       -13.82755        -4.82565
   H       -4.21973       -16.88280        -9.46172
   H       -3.87281       -18.99878        -8.06265
   H       -4.64655       -18.89014        -6.47682
   H       -2.89829       -18.69817        -6.61635
   H       -4.03798       -17.41575        -4.53014
   H       -2.65391       -14.69368        -4.36196
   H       -3.18712       -16.84355        -2.22043
   H       -1.61607       -14.21483        -2.32773
   H       -1.76568       -16.69491         2.52899
   H       -2.77308       -17.03729         0.16631
   H        1.16939       -12.88177         2.07059
   H        2.16264       -12.46013         4.42307
   H        2.97823       -13.09371         9.23021
   H        2.85348       -12.64248         6.69928
   H        0.38041       -15.80632        10.38266
   H        2.51110       -13.83112        11.34936
   H        1.86892       -14.43083        13.51493
   H       -0.90140       -19.85968        11.88141
   H       -2.47102       -20.77620        13.53716
   H       -2.73109       -19.71820        15.73919
   H       -1.44508       -17.71588        16.33272
*
