# ORCA input file
# SCF done       -251.121451359616          0.004426336058
! CAM-B3LYP def2-SVP def2/J RIJCOSX Grid4 TightSCF
%maxcore 5000
%tddft
    Mode sTDDFT
    Ethresh 5.0
    maxcore 5000
end

%pal
  nprocs 6
  end
* xyz 0 1
   C      -11.68750        -4.74273         4.15976
   C      -11.42910        -5.43646         5.33184
   C      -10.41089        -6.37901         5.39729
   C       -9.62743        -6.66271         4.28989
   C       -9.86625        -5.96804         3.11573
   C      -10.89804        -5.00216         3.04978
   C      -10.89938        -4.40500         1.72670
   C      -11.84650        -3.59195         1.18003
   C      -13.00946        -3.16896         1.85971
   N      -13.96978        -2.79444         2.36284
   C      -11.79841        -3.12842        -0.15413
   N      -11.81223        -2.74804        -1.23649
   C       -9.65931        -4.85462         1.07994
   C       -9.19877        -6.03115         1.82686
   C       -8.42737        -7.05202         1.36021
   C       -8.00065        -7.16864         0.02345
   N       -7.68471        -7.32479        -1.06846
   C       -8.04345        -8.15961         2.14898
   N       -7.71523        -9.08461         2.74217
   C       -8.95489        -4.08747         0.22990
   C       -7.56736        -4.29250        -0.19173
   C       -6.49049        -4.15406         0.70391
   C       -6.71816        -3.65077         2.07370
   O       -7.80562        -3.32471         2.50404
   C       -5.52105        -3.47149         2.95057
   C       -4.63197        -2.44773         2.92175
   S       -3.52044        -2.51709         4.23951
   C       -4.27456        -3.92399         4.85557
   C       -5.32919        -4.32322         4.08262
   C       -6.13985        -5.54347         4.20117
   O       -6.62515        -6.03388         3.19249
   C       -6.33189        -6.14017         5.53733
   C       -6.42771        -5.35225         6.68278
   C       -6.66085        -5.94658         7.90991
   C       -6.79054        -7.32327         8.00563
   C       -6.70377        -8.11043         6.86828
   C       -6.48616        -7.52311         5.63567
   C       -5.19885        -4.42887         0.25268
   C       -4.96122        -4.78964        -1.05476
   C       -6.01821        -4.84030        -1.96525
   C       -7.31220        -4.58873        -1.52286
   C       -5.78509        -5.22988        -3.34712
   S       -6.82248        -6.39227        -4.08211
   C       -5.89372        -6.39404        -5.53125
   C       -4.82498        -5.53950        -5.44521
   C       -4.77879        -4.84605        -4.20241
   C       -3.85204        -3.70522        -3.91076
   F       -2.68766        -4.07339        -3.34933
   F       -3.54381        -3.00138        -5.00466
   F       -4.40144        -2.82029        -3.05663
   C       -3.80553        -5.37789        -6.53184
   F       -3.69764        -6.47490        -7.29944
   F       -4.08206        -4.36428        -7.36293
   F       -2.57440        -5.16504        -6.04426
   C       -6.30739        -7.25799        -6.64561
   C       -5.69367        -8.50163        -6.83654
   C       -4.61480        -8.90771        -5.89258
   O       -4.72833        -8.70836        -4.69771
   C       -3.42269        -9.51536        -6.47410
   C       -3.06996        -9.52340        -7.80065
   S       -1.57524       -10.29429        -8.06719
   C       -1.40117       -10.63280        -6.38066
   C       -2.43354       -10.14647        -5.65233
   C       -2.58924       -10.25111        -4.16454
   O       -2.93579       -11.28322        -3.63996
   C       -2.28786        -9.00930        -3.42033
   C       -2.72142        -8.90527        -2.09937
   C       -2.46776        -7.75863        -1.37292
   C       -1.76302        -6.71492        -1.95280
   C       -1.32760        -6.81146        -3.26549
   C       -1.59523        -7.94869        -4.00235
   C       -6.15433        -9.34552        -7.84000
   C       -7.17422        -8.94419        -8.67648
   C       -7.75420        -7.68111        -8.53195
   C       -7.33423        -6.86010        -7.48450
   C       -8.84012        -7.23592        -9.38303
   C       -9.00638        -7.47765       -10.70155
   C      -10.27381        -7.30166       -11.42370
   C      -11.31472        -6.49486       -11.06783
   C      -11.32561        -5.63493        -9.94629
   N      -11.39470        -4.91140        -9.05858
   C      -12.51184        -6.37828       -11.80973
   N      -13.50447        -6.24245       -12.36804
   C      -10.19786        -8.15044       -12.60220
   C       -8.88264        -8.65826       -12.72033
   C       -8.54729        -9.51450       -13.75747
   C       -9.52851        -9.85990       -14.67350
   C      -10.81847        -9.35729       -14.56293
   C      -11.16684        -8.49960       -13.53119
   C       -8.07605        -8.11352       -11.64162
   C       -6.71515        -8.01782       -11.62502
   C       -5.87625        -8.60536       -12.59760
   N       -5.15069        -9.08065       -13.34802
   C       -5.97801        -7.26123       -10.68700
   N       -5.32355        -6.62524        -9.99245
   H      -12.47515        -4.00701         4.12397
   H      -12.02557        -5.23470         6.20840
   H      -10.22104        -6.89817         6.32492
   H       -8.83539        -7.38956         4.35308
   H       -9.42196        -3.19492        -0.16930
   H       -4.56346        -1.65159         2.20726
   H       -3.88166        -4.40248         5.72962
   H       -6.35176        -4.27800         6.60663
   H       -6.74437        -5.33393         8.79596
   H       -6.96678        -7.78211         8.96620
   H       -6.81286        -9.18217         6.93922
   H       -6.42031        -8.12284         4.73934
   H       -4.37288        -4.36378         0.94419
   H       -3.96313        -5.04060        -1.37671
   H       -8.13616        -4.65605        -2.21808
   H       -3.59409        -9.07107        -8.61929
   H       -0.53354       -11.15509        -6.03039
   H       -3.26714        -9.73089        -1.66874
   H       -2.81689        -7.67899        -0.35342
   H       -1.54607        -5.82106        -1.38604
   H       -0.78838        -5.99275        -3.71605
   H       -1.25423        -8.01554        -5.02522
   H       -5.72694       -10.33118        -7.94457
   H       -7.54625        -9.62285        -9.43041
   H       -7.79585        -5.89400        -7.34559
   H       -9.62129        -6.69605        -8.86423
   H       -7.55144        -9.91695       -13.84875
   H       -9.28460       -10.53140       -15.48217
   H      -11.56521        -9.64084       -15.28850
   H      -12.17419        -8.12428       -13.45630
*
