# ORCA input file
# SCF done       -231.028703858774          0.000624202698
! CAM-B3LYP def2-SVP def2/J RIJCOSX Grid4 TightSCF
%maxcore 5000
%tddft
    Mode sTDDFT
    Ethresh 5.0
    maxcore 5000
end

%pal
  nprocs 6
  end
* xyz 0 1
   C        3.06862        -5.12108        -9.61984
   C        4.41587        -5.41425        -9.47579
   C        5.12351        -5.00440        -8.35290
   C        4.50593        -4.28200        -7.34395
   C        3.16001        -3.97856        -7.47695
   C        2.43454        -4.40398        -8.61614
   C        1.05112        -3.98143        -8.48390
   C        0.07403        -4.05098        -9.43136
   C        0.27818        -4.56700       -10.73236
   N        0.38162        -4.96824       -11.80144
   C       -1.25612        -3.59415        -9.27848
   N       -2.35209        -3.25694        -9.24241
   C        0.91346        -3.44956        -7.12041
   C        2.27155        -3.22561        -6.61254
   C        2.63695        -2.35158        -5.63072
   C        1.75572        -1.44770        -5.00329
   N        1.08965        -0.66035        -4.49911
   C        3.96729        -2.18340        -5.18326
   N        5.02301        -2.01713        -4.76862
   C       -0.24896        -3.40016        -6.44661
   C       -0.47168        -3.11863        -5.03842
   C       -1.39772        -2.13783        -4.68640
   C       -2.10690        -1.20516        -5.58088
   O       -2.06752        -1.11884        -6.78059
   N       -2.86952        -0.38421        -4.74128
   C       -2.69824        -0.69769        -3.38699
   O       -3.24648        -0.16232        -2.46399
   C       -1.71625        -1.81723        -3.36822
   C       -1.12877        -2.47959        -2.30589
   C       -0.20978        -3.46989        -2.63675
   C        0.12081        -3.79215        -3.95668
   C        1.09922        -4.88746        -4.08155
   O        1.54172        -5.37036        -5.08624
   S        1.58603        -5.43571        -2.44926
   C        0.50027        -4.26466        -1.61466
   O        0.40522        -4.18568        -0.43032
   C       -3.65262         0.61385        -5.30061
   C       -4.50425         1.42020        -4.64707
   C       -5.29011         2.41805        -5.29691
   S       -5.78249         3.79929        -4.38904
   C       -6.49201         4.57219        -5.77148
   C       -6.39046         3.74253        -6.90459
   C       -5.72255         2.50988        -6.63066
   C       -5.62548         1.54319        -7.64920
   C       -6.09933         1.82294        -8.90362
   S       -5.99139         0.64206       -10.22255
   C       -6.70941         3.07626        -9.19643
   O       -7.16941         3.37073       -10.42641
   C       -6.86214         4.00877        -8.19730
   C       -7.03296         5.86858        -5.71591
   C       -7.14722         6.60668        -4.58069
   C       -7.68105         7.92688        -4.49351
   C       -8.34686         8.33232        -3.31717
   C       -8.56073         7.58040        -2.06773
   O       -8.19416         6.48306        -1.74213
   N       -9.32680         8.42768        -1.23377
   C       -9.60411         9.65477        -1.84789
   O      -10.20631        10.57345        -1.36222
   C       -8.97715         9.56817        -3.18862
   C       -8.98059        10.50301        -4.20672
   C       -8.26366        10.15607        -5.34593
   C       -7.61126         8.93227        -5.49756
   C       -6.75705         8.88048        -6.69776
   O       -5.95371         8.05861        -7.02475
   S       -7.00564        10.38008        -7.67681
   C       -8.11575        11.09871        -6.47707
   O       -8.62630        12.17047        -6.59525
   C       -9.79047         7.98681        -0.01292
   C      -10.62287         8.68181         0.78326
   C      -11.12544         8.15905         2.00528
   C      -12.19388         8.67088         2.67698
   C      -12.52016         8.41251         4.07780
   C      -12.11390         7.34867         4.83365
   C      -11.33483         6.27216         4.35663
   N      -10.71244         5.36510         4.02937
   C      -12.46331         7.16115         6.18861
   N      -12.71055         6.95221         7.28931
   C      -13.37448         9.50798         4.51390
   C      -13.70376        10.30787         3.39486
   C      -14.49435        11.43580         3.54261
   C      -14.95603        11.75939         4.80950
   C      -14.64222        10.97012         5.90731
   C      -13.85124         9.83918         5.77294
   C      -13.10985         9.70876         2.20964
   C      -13.50896         9.92013         0.91833
   C      -14.44085        10.91219         0.54122
   N      -15.18568        11.70663         0.18074
   C      -13.15347         9.10264        -0.17755
   N      -12.95448         8.43846        -1.09207
   H        2.53169        -5.45569       -10.49241
   H        4.91940        -5.97571       -10.24770
   H        6.16943        -5.25361        -8.26107
   H        5.06246        -3.97942        -6.47196
   H       -1.16385        -3.58749        -6.99541
   H       -1.35354        -2.24566        -1.27759
   H       -3.47488         0.69758        -6.36316
   H       -4.57406         1.37337        -3.56986
   H       -5.21039         0.57138        -7.43784
   H       -5.26966        -0.25413        -9.55997
   H       -6.99291         2.64999       -11.04617
   H       -7.34799         4.93909        -8.43785
   H       -7.39148         6.26117        -6.65511
   H       -6.90227         6.14057        -3.63519
   H       -9.48299        11.45281        -4.12406
   H       -9.47145         6.97796         0.22005
   H      -10.92265         9.67672         0.49161
   H      -10.57474         7.34009         2.44657
   H      -14.73872        12.06053         2.69893
   H      -15.56696        12.63924         4.94109
   H      -15.01467        11.24084         6.88338
   H      -13.61189         9.24124         6.63694
*
