# ORCA input file
# SCF done       -229.509095156254          0.000862306974
! CAM-B3LYP def2-SVP def2/J RIJCOSX Grid4 TightSCF
%maxcore 5000
%tddft
    Mode sTDDFT
    Ethresh 5.0
    maxcore 5000
end

%pal
  nprocs 6
  end
* xyz 0 1
   C       -5.98676        -7.61831        -3.03942
   C       -5.87518        -7.51777        -4.41734
   C       -5.00602        -6.60526        -5.00156
   C       -4.21565        -5.77428        -4.22359
   C       -4.31085        -5.87015        -2.84353
   C       -5.20603        -6.78974        -2.24652
   C       -5.13725        -6.65341        -0.80183
   C       -5.77345        -7.42780         0.12192
   C       -6.58419        -8.53969        -0.20642
   N       -7.24764        -9.45375        -0.40402
   C       -5.72148        -7.25654         1.52534
   N       -5.75876        -7.17498         2.66900
   C       -4.26184        -5.50229        -0.53454
   C       -3.58854        -5.17407        -1.79612
   C       -2.41695        -4.48936        -1.94326
   C       -1.59300        -4.05777        -0.88419
   N       -0.85688        -3.71935        -0.07093
   C       -1.83418        -4.18674        -3.19537
   N       -1.32493        -3.88698        -4.17795
   C       -4.24529        -4.81531         0.62264
   C       -3.63296        -3.52695         0.89221
   C       -3.87133        -2.37485         0.14151
   C       -4.68690        -2.17758        -1.08262
   O       -5.33003        -2.97980        -1.71254
   N       -4.57221        -0.82693        -1.40480
   C       -3.80527        -0.11897        -0.47545
   O       -3.62814         1.06803        -0.45046
   C       -3.33063        -1.13687         0.49829
   C       -2.52089        -0.96773         1.60415
   C       -2.26818        -2.11119         2.35403
   C       -2.80814        -3.34472         2.01509
   C       -2.35755        -4.46673         2.86140
   O       -2.61376        -5.62397         2.71923
   S       -1.30118        -3.82190         4.15880
   C       -1.40632        -2.13322         3.55855
   O       -0.86627        -1.20517         4.07603
   C       -5.26476        -0.27020        -2.48711
   C       -4.86176         0.85643        -3.08518
   C       -5.54657         1.60553        -4.09572
   S       -4.61254         2.79996        -4.93430
   C       -6.01838         3.38491        -5.76523
   C       -7.14253         2.67820        -5.41391
   C       -6.87548         1.66423        -4.46567
   C       -7.95175         0.78967        -3.90470
   C       -9.34301         1.40014        -4.13150
   C      -10.35135         0.42001        -3.79360
   N      -11.12274        -0.38103        -3.53339
   C       -9.48401         1.84430        -5.60157
   C      -10.84000         2.26320        -5.87760
   N      -11.90313         2.62866        -6.07840
   C       -8.52693         3.01177        -5.87412
   C       -5.83543         4.57721        -6.57438
   C       -5.27286         5.70996        -5.97577
   C       -4.97135         5.94057        -4.54881
   O       -5.26699         5.29756        -3.57667
   N       -4.24621         7.13987        -4.50665
   C       -4.15992         7.75765        -5.76167
   O       -3.62365         8.80233        -5.99303
   C       -4.86951         6.83528        -6.69334
   C       -5.07824         6.93406        -8.05695
   C       -5.68999         5.84016        -8.66024
   C       -6.04470         4.68701        -7.95874
   C       -6.56344         3.59887        -8.81139
   O       -6.91285         2.50686        -8.47341
   S       -6.60762         4.15511       -10.51658
   C       -5.95161         5.77913       -10.11661
   O       -5.76804         6.63593       -10.92292
   C       -3.49906         7.40193        -3.36963
   C       -2.41647         8.18320        -3.29043
   C       -1.57585         8.20388        -2.12690
   C       -1.27615         7.15429        -1.32203
   C       -0.62881         7.29834        -0.01049
   C        0.13924         8.34261         0.41672
   C        0.49322         9.47114        -0.35655
   N        0.83149        10.40864        -0.92514
   C        0.73897         8.40894         1.69490
   N        1.25045         8.52861         2.71441
   C       -0.93986         6.09571         0.74502
   C       -1.56263         5.16360        -0.11707
   C       -1.99836         3.93754         0.36273
   C       -1.79082         3.64520         1.70168
   C       -1.15977         4.54911         2.54581
   C       -0.73183         5.78286         2.07998
   C       -1.61944         5.72969        -1.45516
   C       -1.73357         4.98342        -2.59388
   C       -1.91402         3.58254        -2.60844
   N       -2.05739         2.45032        -2.73017
   C       -1.64905         5.44513        -3.92451
   N       -1.59580         5.69899        -5.04314
   H       -6.67378        -8.32478        -2.60366
   H       -6.47888        -8.15616        -5.04387
   H       -4.94434        -6.53983        -6.07696
   H       -3.55298        -5.06342        -4.68929
   H       -4.77944        -5.22647         1.47008
   H       -2.09316        -0.01421         1.86768
   H       -6.11182        -0.86758        -2.78858
   H       -3.92578         1.30166        -2.77166
   H       -7.78848         0.64193        -2.83387
   H       -7.91112        -0.19375        -4.38641
   H       -9.48046         2.27295        -3.48079
   H       -9.23816         1.00403        -6.26196
   H       -8.87878         3.90413        -5.34304
   H       -8.53069         3.23953        -6.94020
   H       -4.77291         7.79375        -8.63175
   H       -3.83886         6.80991        -2.52735
   H       -2.15247         8.84582        -4.10185
   H       -1.14920         9.16736        -1.88248
   H       -2.50649         3.22729        -0.26883
   H       -2.13460         2.70015         2.09228
   H       -1.00573         4.29384         3.58294
   H       -0.25778         6.47974         2.75120
*
