# ORCA input file
# SCF done       -200.948464101513          0.000808024405
! CAM-B3LYP def2-SVP def2/J RIJCOSX Grid4 TightSCF
%maxcore 5000
%tddft
    Mode sTDDFT
    Ethresh 5.0
    maxcore 5000
end

%pal
  nprocs 6
  end
* xyz 0 1
   C       -0.16152         7.38545        -5.31153
   C        0.40586         6.37642        -4.57296
   C        1.75038         6.39571        -4.15785
   N        2.85995         6.35436        -3.86039
   C       -0.25987         5.15812        -4.33809
   N       -0.79674         4.15468        -4.18427
   C        0.52953         8.58445        -5.76480
   C       -0.12742         9.06524        -6.93568
   C        0.32373        10.16836        -7.60049
   C        1.45069        10.86143        -7.09950
   C        2.08181        10.40713        -5.90530
   C        1.60568         9.24986        -5.24702
   C        3.18372        11.12601        -5.40063
   C        3.65134        12.23546        -6.05123
   C        3.03751        12.67671        -7.23269
   C        1.95978        12.00563        -7.74457
   C       -1.30485         8.21885        -7.21394
   O       -2.06213         8.27023        -8.15481
   C       -1.40985         7.30980        -6.03530
   C       -2.57833         6.66916        -5.74855
   C       -2.97495         6.21238        -4.46751
   O       -2.32095         6.67141        -3.37537
   C       -2.96053         6.23065        -2.27110
   C       -4.04956         5.46415        -2.64539
   C       -4.06454         5.44161        -4.04898
   C       -5.06076         4.72594        -4.87739
   O       -6.20030         4.57436        -4.53905
   O       -4.60898         4.24422        -6.04795
   C       -2.44440         6.62333        -0.98759
   C       -1.30082         7.38847        -0.93610
   C       -0.75889         7.77336         0.30274
   C        0.38765         8.48707         0.62449
   C        1.43058         9.01769        -0.30124
   C        2.07109         7.84503        -1.07035
   N        3.36426         8.22006        -1.59126
   C        0.85652        10.08533        -1.25023
   N        1.91419        10.71641        -2.02935
   C        0.45218         8.53239         2.06550
   C        1.36313         9.07381         2.89561
   C        1.25289         8.93678         4.37085
   C        0.02425         8.21571         4.84654
   C       -0.89075         7.70699         4.00184
   C       -0.71852         7.82100         2.60159
   C       -1.44668         7.36401         1.52281
   C       -2.63506         6.59903         1.43341
   C       -3.11351         6.23323         0.21823
   C        1.30573        10.24131         5.11431
   C        1.00053        11.42274         4.56740
   C        0.98477        12.69325         5.23255
   O        0.62231        13.72643         4.46192
   C        0.66399        14.87168         5.19829
   C        1.07804        14.55633         6.47900
   C        1.28808        13.16369         6.52172
   C        1.72675        12.42720         7.72525
   O        1.72853        11.22832         7.83498
   O        2.13563        13.18776         8.74747
   C        0.30288        16.06033         4.52101
   C        0.21625        17.34655         4.96616
   C       -0.19535        18.47099         4.13336
   C       -0.34010        18.48155         2.77071
   C       -0.72810        19.61871         2.02903
   N       -1.04027        20.50048         1.36386
   C       -0.09331        17.40291         1.89523
   N        0.09923        16.58905         1.10758
   C       -0.37279        19.62837         5.00153
   C        0.01463        19.26514         6.32209
   C        0.43035        17.85635         6.34507
   O        0.86201        17.25907         7.31157
   C       -0.02768        20.15145         7.36009
   C       -0.47735        21.46870         7.12194
   C       -0.87721        21.83931         5.80521
   C       -0.81720        20.90016         4.75003
   C       -1.32924        23.15539         5.57922
   C       -1.38288        24.06256         6.60239
   C       -0.98801        23.69651         7.89781
   C       -0.54470        22.42693         8.15225
   H       -0.17419        10.51521        -8.49368
   H        2.09036         8.93404        -4.33665
   H        3.65073        10.78048        -4.49039
   H        4.49833        12.77862        -5.65938
   H        3.42068        13.55249        -7.73435
   H        1.48104        12.34407        -8.65183
   H       -3.32097         6.63130        -6.53736
   H       -4.75090         4.96399        -2.01121
   H       -3.65381         4.34524        -6.15610
   H       -0.82220         7.68048        -1.85693
   H        2.22858         9.48496         0.28425
   H        1.36268         7.51028        -1.84646
   H        2.21642         7.00477        -0.38206
   H        3.25901         9.05182        -2.16641
   H        3.73751         7.46971        -2.16549
   H        0.27944        10.80721        -0.64745
   H        0.16441         9.62329        -1.95811
   H        2.54131        11.22356        -1.41171
   H        1.51500        11.38740        -2.67812
   H        2.23054         9.60465         2.52686
   H        2.12873         8.35221         4.69911
   H       -0.08857         8.13619         5.91600
   H       -1.76089         7.19217         4.38215
   H       -3.14491         6.30579         2.33890
   H       -4.01192         5.64326         0.13719
   H        1.54756        10.17407         6.16396
   H        0.72473        11.49081         3.52197
   H        1.17810        15.28008         7.26293
   H        2.09578        14.13648         8.56338
   H        0.04672        15.87020         3.48595
   H        0.27637        19.84918         8.35130
   H       -1.13083        21.21356         3.76718
   H       -1.63124        23.43349         4.58027
   H       -1.73005        25.06820         6.41889
   H       -1.03705        24.42506         8.69303
   H       -0.23958        22.13896         9.14757
*
