# ORCA input file
# SCF done       -226.383709317704          0.000315915828
! CAM-B3LYP def2-SVP def2/J RIJCOSX Grid4 TightSCF
%maxcore 5000
%tddft
    Mode sTDDFT
    Ethresh 5.0
    maxcore 5000
end

%pal
  nprocs 6
  end
* xyz 0 1
   C        2.66114         5.61692        -4.49227
   C        1.36325         6.01134        -4.66059
   F        0.95601         6.45103        -5.86645
   C        0.42559         5.97598        -3.61990
   C        0.82104         5.52979        -2.38954
   C        2.14671         5.10828        -2.16055
   C        3.08616         5.15502        -3.23130
   C        4.42369         4.74359        -3.02389
   C        4.80402         4.29098        -1.78960
   C        3.85591         4.23207        -0.72764
   C        2.56302         4.63463        -0.89580
   C        4.50486         3.66947         0.47514
   O        4.02352         3.52320         1.57511
   C        5.86176         3.25838         0.02426
   C        6.09351         3.82769        -1.28388
   C        7.31304         4.09941        -1.85074
   C        8.53794         3.85187        -1.20104
   N        9.55761         3.69159        -0.69818
   C        7.47712         4.63576        -3.13995
   N        7.65931         5.01484        -4.20935
   C        6.58198         2.38196         0.77628
   C        7.66594         1.54719         0.38844
   C        7.89138         1.09899        -0.93499
   C        9.04215         0.32065        -1.28387
   N        9.23138        -0.03910        -2.56952
   C        8.40202         0.35951        -3.48856
   C        7.20859         1.06315        -3.13023
   N        6.98072         1.38371        -1.88713
   C        6.16829         1.41300        -4.13869
   C        8.70047        -0.00524        -4.90268
   C        9.98490        -0.08357        -0.31875
   C        9.72109         0.27681         1.01106
   C        8.56828         1.07308         1.36102
   N        8.53016         1.34655         2.66664
   S        9.81437         0.68585         3.36713
   N       10.48764         0.02579         2.07833
   C       11.17798        -0.81367        -0.68422
   C       11.58989        -1.94368         0.04803
   C       12.79516        -2.65092        -0.27322
   N       13.10911        -3.76146         0.42509
   C       12.37602        -4.13341         1.43126
   C       11.18374        -3.41183         1.76685
   N       10.81158        -2.38987         1.05622
   C       10.29911        -3.84019         2.88824
   C       12.78327        -5.36043         2.17475
   C       13.63732        -2.23755        -1.32592
   C       13.21720        -1.12530        -2.07106
   C       11.99107        -0.42254        -1.75734
   N       11.81946         0.64648        -2.54241
   S       13.05451         0.74697        -3.55214
   N       13.88375        -0.53143        -3.06683
   C       14.86978        -2.93198        -1.61517
   C       15.24575        -3.25618        -2.93576
   C       16.47432        -3.93002        -3.21669
   N       16.81674        -4.17912        -4.49866
   C       16.02504        -3.80674        -5.46433
   C       14.76085        -3.19798        -5.17587
   N       14.40293        -2.96082        -3.94802
   C       13.79620        -2.84993        -6.25875
   C       16.46234        -4.08197        -6.86178
   C       17.38144        -4.31610        -2.19938
   C       16.97607        -4.04164        -0.87764
   C       15.74106        -3.34553        -0.59608
   N       15.57825        -3.14123         0.71572
   S       16.79861        -3.79861         1.50337
   N       17.62498        -4.36605         0.24419
   C       18.57532        -4.99711        -2.56366
   C       19.73470        -5.18281        -1.87449
   C       20.63708        -6.30059        -2.26877
   O       20.58715        -6.95321        -3.28646
   C       21.55988        -6.47316        -1.12843
   C       22.50052        -7.44000        -0.92216
   C       23.25402        -7.42511         0.27347
   C       23.01273        -6.40328         1.23736
   C       23.76159        -6.39986         2.43036
   C       24.70130        -7.37091         2.63635
   C       24.95446        -8.38275         1.70064
   C       24.23611        -8.40150         0.53745
   F       25.41761        -7.36886         3.77679
   C       22.03691        -5.40872         0.99251
   C       21.32450        -5.44081        -0.17522
   C       20.29090        -4.55372        -0.70061
   C       20.05921        -3.26941        -0.28137
   C       19.23667        -2.36022        -0.97492
   N       18.59909        -1.57546        -1.51891
   C       20.65968        -2.69096         0.85316
   N       21.09685        -2.18086         1.78466
   H        3.35661         5.66236        -5.31582
   H       -0.58483         6.30042        -3.81174
   H        0.11710         5.49290        -1.57175
   H        5.11363         4.78793        -3.85182
   H        1.86338         4.59005        -0.07460
   H        6.24784         2.25571         1.80136
   H        6.56250         2.15892        -4.82888
   H        5.29387         1.81836        -3.63629
   H        5.88119         0.53714        -4.71745
   H        9.64466        -0.54023        -4.94003
   H        8.76820         0.89490        -5.51150
   H        7.91253        -0.63421        -5.31467
   H        9.95178        -4.86090         2.73528
   H        9.44345        -3.17382         2.94407
   H       10.84484        -3.80730         3.82974
   H       13.68490        -5.76865         1.72770
   H       11.99351        -6.10940         2.14220
   H       12.97608        -5.11883         3.21879
   H       13.54439        -3.73102        -6.84709
   H       14.23498        -2.11135        -6.92784
   H       12.89360        -2.44111        -5.81438
   H       17.43978        -4.55520        -6.84680
   H       16.51827        -3.15316        -7.42740
   H       15.75116        -4.73767        -7.36225
   H       18.52498        -5.49868        -3.52555
   H       22.66811        -8.20972        -1.66070
   H       23.59596        -5.63390         3.17183
   H       25.70838        -9.12270         1.91793
   H       24.41292        -9.17111        -0.19892
   H       21.86900        -4.65092         1.74133
*
