# ORCA input file
# SCF done       -225.312623993234          0.000134135557
! CAM-B3LYP def2-SVP def2/J RIJCOSX Grid4 TightSCF
%maxcore 5000
%tddft
    Mode sTDDFT
    Ethresh 5.0
    maxcore 5000
end

%pal
  nprocs 6
  end
* xyz 0 1
   C      -13.56249         1.25298         3.47445
   C      -13.48378         2.18874         4.49600
   C      -12.47833         3.14441         4.51801
   C      -11.52435         3.19697         3.51265
   C      -11.59011         2.26421         2.49199
   C      -12.60850         1.28420         2.47040
   C      -12.41934         0.43279         1.30004
   C      -13.26731        -0.55769         0.87988
   C      -14.46773        -0.89996         1.53677
   N      -15.45468        -1.22970         2.02183
   C      -13.09683        -1.34467        -0.27923
   N      -13.03904        -2.02224        -1.20458
   C      -11.16241         0.83913         0.68916
   C      -10.78224         2.10373         1.29370
   C      -10.02047         3.08411         0.70760
   C       -9.64808         3.03922        -0.65259
   N       -9.39683         3.06092        -1.77246
   C       -9.59213         4.25412         1.35868
   N       -9.15639         5.19237         1.85911
   C      -10.41534         0.01820        -0.12315
   C       -9.04681         0.03087        -0.40226
   C       -8.40952        -0.92924        -1.21560
   C       -6.99629        -0.78276        -1.27578
   N       -6.23364        -1.60115        -2.01911
   C       -6.85420        -2.54300        -2.68449
   C       -8.27972        -2.70365        -2.61223
   N       -9.03019        -1.90902        -1.88895
   C       -8.97365        -3.78972        -3.35682
   C       -6.01633        -3.45190        -3.51546
   C       -6.52895         0.29356        -0.51172
   S       -7.83806         1.07204         0.29966
   C       -5.21840         0.79227        -0.39678
   C       -4.87913         2.00164         0.15922
   C       -3.50206         2.27291         0.12884
   C       -2.85006         3.45540         0.55483
   C       -3.56917         4.55819         1.15369
   C       -3.33112         5.89685         1.00135
   C       -4.23507         6.70216         1.72498
   C       -5.16190         6.00667         2.44946
   S       -4.91519         4.30930         2.23962
   C       -6.27563         6.51537         3.28402
  Cl       -4.16441         8.42088         1.68426
   C       -1.47846         3.50289         0.34061
   C       -0.74141         2.43829        -0.24827
   C       -1.39947         1.26357        -0.68556
   C       -2.77347         1.21486        -0.48098
   S       -3.83218        -0.07792        -0.99590
   C       -0.69782         0.17410        -1.32900
   C       -0.97014        -1.16393        -1.23777
   C       -0.12203        -1.95031        -2.04255
   C        0.79199        -1.23781        -2.76599
   S        0.61678         0.44987        -2.44077
   C        1.83380        -1.74884        -3.69333
  Cl       -0.23351        -3.66628        -2.11114
   C        0.63741         2.71153        -0.28308
   C        0.96856         3.94555         0.22324
   S       -0.43411         4.82255         0.79422
   C        2.26653         4.49235         0.26044
   C        3.44535         3.88971        -0.21255
   C        4.59065         4.71189        -0.03545
   N        5.81229         4.29535        -0.39957
   C        5.90070         3.11022        -0.94985
   C        4.74128         2.29198        -1.16061
   N        3.54762         2.67647        -0.78378
   C        4.84406         0.95617        -1.81443
   C        7.25962         2.64699        -1.34298
   C        4.30478         5.97030         0.52789
   S        2.60132         6.06563         0.88463
   C        5.28925         6.91076         0.84463
   C        5.15547         8.21917         1.24093
   C        6.15144         8.94769         2.01029
   C        7.46668         8.61199         2.20223
   C        8.37051         9.37186         2.97392
   N        9.16015         9.93887         3.58487
   C        8.12476         7.49841         1.63917
   N        8.73969         6.62198         1.22301
   C        5.47756        10.11476         2.56997
   C        4.16486        10.17765         2.05031
   C        3.29569        11.18247         2.43879
   C        3.74401        12.12862         3.34859
   C        5.03580        12.07684         3.85171
   C        5.91470        11.07364         3.46960
   C        4.00072         9.09027         1.09781
   C        3.10355         9.07204         0.06116
   C        2.04817         9.99467        -0.08210
   N        1.16414        10.70947        -0.24061
   C        3.20669         8.19915        -1.04113
   N        3.29050         7.54267        -1.97949
   H      -14.35173         0.51942         3.47533
   H      -14.21847         2.16878         5.28638
   H      -12.43640         3.85795         5.32675
   H      -10.74445         3.94119         3.53722
   H      -10.90440        -0.85135        -0.54642
   H       -8.79715        -3.68793        -4.42659
   H      -10.04019        -3.73098        -3.15940
   H       -8.59944        -4.76441        -3.04699
   H       -4.97372        -3.16213        -3.42047
   H       -6.31494        -3.39230        -4.56096
   H       -6.13680        -4.48431        -3.19077
   H       -5.62664         2.67426         0.53605
   H       -2.57437         6.30858         0.35991
   H       -6.21793         7.59847         3.35240
   H       -6.23352         6.08931         4.28558
   H       -7.23412         6.23775         2.84248
   H       -1.71904        -1.58560        -0.59430
   H        1.44291        -2.58838        -4.26529
   H        2.70335        -2.09977        -3.13529
   H        2.15456        -0.96602        -4.37568
   H        1.39802         2.05166        -0.65483
   H        5.28825         1.05264        -2.80360
   H        3.85109         0.52441        -1.90483
   H        5.47570         0.29241        -1.22577
   H        7.98727         3.40351        -1.06394
   H        7.30633         2.47980        -2.41814
   H        7.50162         1.70862        -0.84635
   H        6.28448         6.48256         0.82729
   H        2.28843        11.22705         2.05717
   H        3.07670        12.91456         3.66772
   H        5.36534        12.82621         4.55512
   H        6.91298        11.04937         3.87430
*
