# ORCA input file
# SCF done       -248.710328898930          0.000979211517
! CAM-B3LYP def2-SVP def2/J RIJCOSX Grid4 TightSCF
%maxcore 5000
%tddft
    Mode sTDDFT
    Ethresh 5.0
    maxcore 5000
end

%pal
  nprocs 6
  end
* xyz 0 1
   C        2.99209         0.35740        -0.88994
   F        3.49485         0.91546        -1.99289
   C        2.67447         1.15138         0.20791
   F        2.86159         2.47005         0.16469
   C        2.16087         0.54798         1.35148
   F        1.84813         1.29207         2.41358
   C        1.96856        -0.82692         1.38753
   F        1.45546        -1.35495         2.50271
   C        2.27118        -1.65369         0.29719
   C        2.79310        -1.01537        -0.83686
   F        3.14285        -1.73515        -1.90922
   C        2.07300        -3.08894         0.33382
   C        1.83299        -3.91615        -0.72400
   C        1.71347        -5.27968        -0.36199
   C        1.50195        -6.38244        -1.21463
   C        1.42564        -6.21736        -2.65213
   C        2.19835        -5.43061        -3.45740
   C        1.82120        -5.50762        -4.81612
   C        0.76503        -6.33596        -5.06310
   S        0.21992        -7.05947        -3.58844
   C        0.10375        -6.64292        -6.35614
  Cl        2.63641        -4.61924        -6.04585
   C        1.37521        -7.62046        -0.59894
   C        1.47417        -7.81224         0.80301
   C        1.74214        -6.71792         1.64940
   C        1.83698        -5.47025         1.03497
   S        2.13933        -3.96501         1.84883
   C        1.94999        -6.86391         3.07512
   C        1.58461        -6.00693         4.07443
   C        2.02141        -6.43284         5.34736
   C        2.73203        -7.59801         5.34200
   S        2.85926        -8.20358         3.72653
   C        3.33546        -8.32832         6.48447
  Cl        1.68342        -5.53879         6.77879
   C        1.26534        -9.16584         1.16310
   C        1.06952        -9.99215         0.09394
   S        1.11846        -9.12927        -1.42762
   C        0.82135       -11.39582         0.11370
   C        0.37303       -12.15571         1.17430
   C        0.21885       -13.49989         0.82394
   C        0.57635       -13.75996        -0.50790
   S        1.07174       -12.35428        -1.33562
   C        0.38026       -15.14295        -0.76750
   C       -0.13271       -15.74744         0.38892
   C       -0.23829       -14.73908         1.43299
   C       -0.66764       -14.91832         2.71541
   C       -0.69835       -13.86138         3.64889
   N       -0.71326       -12.99973         4.40561
   C       -1.10568       -16.16983         3.19702
   N       -1.46093       -17.18341         3.59869
   C       -0.37874       -17.11384         0.22328
   C       -0.02877       -17.55011        -1.03693
   S        0.59716       -16.25534        -2.04469
   C       -0.12685       -18.86798        -1.56653
   C        0.51489       -19.36975        -2.66052
   C        0.20199       -20.72296        -2.93680
   C        0.70227       -21.54362        -3.96683
   C        1.66162       -21.07327        -4.94551
   C        2.71122       -21.76385        -5.48097
   C        3.43336       -21.01303        -6.43320
   C        2.94891       -19.75681        -6.65176
   S        1.56373       -19.47976        -5.65137
   C        3.45532       -18.70860        -7.57321
  Cl        4.81579       -21.64426        -7.24115
   C        0.23474       -22.85691        -4.00471
   C       -0.71357       -23.35893        -3.08392
   C       -1.22337       -22.53769        -2.05807
   C       -0.72094       -21.24569        -1.99510
   S       -1.16719       -20.05251        -0.80430
   C       -2.24171       -23.02296        -1.14743
   C       -3.34970       -23.75871        -1.45455
   C       -4.13235       -24.06402        -0.31997
   C       -3.64086       -23.57408         0.85391
   S       -2.17064       -22.70473         0.56362
   C       -4.19665       -23.70361         2.22455
  Cl       -5.58667       -24.98409        -0.43279
   C       -1.02288       -24.71702        -3.33818
   C       -0.37284       -25.23705        -4.42047
   S        0.71526       -24.07969        -5.14926
   C       -0.43837       -26.56687        -4.98438
   C       -1.46336       -27.44893        -4.78647
   O       -1.46672       -28.69508        -5.29163
   C       -0.41546       -29.14956        -6.01190
   C       -0.44357       -30.47539        -6.44651
   C        0.60383       -30.96300        -7.19599
   C        1.68350       -30.14524        -7.52561
   C        1.71046       -28.83686        -7.10324
   C        0.66116       -28.32134        -6.33630
   C        0.66326       -26.93083        -5.88447
   O        1.50960       -26.12252        -6.24023
   C       -2.73499       -27.17696        -4.05126
   H        1.69990        -3.57053        -1.73118
   H        3.03246        -4.84737        -3.11345
   H        0.59545        -6.09740        -7.15751
   H       -0.94746        -6.35781        -6.32650
   H        0.15513        -7.71011        -6.56888
   H        0.99355        -5.12191         3.92968
   H        3.24245        -7.73262         7.38898
   H        4.38893        -8.53186         6.29728
   H        2.83166        -9.28262         6.63844
   H        1.26152        -9.52020         2.17619
   H        0.15172       -11.74138         2.14026
   H       -0.77963       -17.77191         0.97305
   H        1.20835       -18.78282        -3.23432
   H        2.98830       -22.76050        -5.19339
   H        4.37462       -19.05024        -8.04236
   H        3.65330       -17.78425        -7.03189
   H        2.72232       -18.49197        -8.35016
   H       -3.63091       -24.03360        -2.45408
   H       -5.14522       -24.23382         2.18853
   H       -4.35499       -22.72083         2.66655
   H       -3.50955       -24.25283         2.86778
   H       -1.65782       -25.28376        -2.68769
   H       -1.28833       -31.09247        -6.18450
   H        0.58600       -31.98865        -7.53164
   H        2.49585       -30.54220        -8.11436
   H        2.52915       -28.17638        -7.34457
   H       -3.07756       -26.16357        -4.24259
   H       -2.60024       -27.30601        -2.97814
   H       -3.48735       -27.88911        -4.38327
*
