# ORCA input file
# SCF done       -253.805967521546          0.000509743015
! CAM-B3LYP def2-SVP def2/J RIJCOSX Grid4 TightSCF
%maxcore 5000
%tddft
    Mode sTDDFT
    Ethresh 5.0
    maxcore 5000
end

%pal
  nprocs 6
  end
* xyz 0 1
   C       -2.63988        -2.44736         5.45278
   C       -1.59710        -1.95757         6.15242
   C       -0.58914        -1.38412         5.32205
   C        0.62176        -0.78043         5.70526
   C        1.00915        -0.60387         7.09168
   C        2.25275        -0.74496         7.63603
   C        2.28435        -0.44010         9.01432
   C        1.08539        -0.05504         9.53723
   S       -0.12854        -0.07405         8.30228
   C        0.75667         0.33458        10.93185
  Cl        3.73043        -0.55103         9.94395
   C        1.44955        -0.34112         4.67548
   C        1.11367        -0.44893         3.30590
   C       -0.11330        -1.02141         2.92536
   C       -0.92327        -1.49657         3.95179
   S       -2.47688        -2.25810         3.74254
   C       -0.50422        -1.09237         1.53073
   C       -0.39662        -0.11954         0.57988
   C       -0.86930        -0.53918        -0.68315
   C       -1.33173        -1.82168        -0.71576
   S       -1.19471        -2.54152         0.85368
   C       -1.88969        -2.58331        -1.86184
  Cl       -0.85509         0.49922        -2.05932
   C        2.14233         0.05437         2.46674
   C        3.21033         0.56430         3.13878
   S        2.99283         0.43466         4.87634
   C        4.43088         1.13446         2.61199
   C        5.34608         1.73913         3.48407
   C        6.52214         2.25189         2.99370
   C        6.78746         2.21351         1.61368
   C        5.88498         1.62484         0.74026
   C        4.72049         1.08104         1.24372
   C        8.04550         2.88428         1.36639
   C        8.55372         3.34509         2.59256
   C        7.65704         2.91811         3.73628
   C        8.45981         1.90165         4.58305
   C        7.68109         1.18488         5.67818
   C        7.17994         4.10788         4.58126
   C        6.49646         5.17890         3.73885
   C        9.73807         4.03765         2.64559
   C       10.45062         4.28357         1.46238
   C        9.93634         3.80239         0.25014
   C        8.74177         3.11488         0.18902
   C       11.70673         4.99633         1.44242
   C       12.23222         5.71667         2.45104
   C       13.49102         6.39163         2.39084
   C       14.44404         6.37757         1.41259
   C       15.58301         7.16369         1.70634
   C       16.74319         7.34089         0.92515
   C       16.95908         6.63883        -0.32434
   C       17.54149         7.11169        -1.46483
   C       17.65147         6.12848        -2.47241
   C       17.17338         4.90080        -2.11960
   S       16.55624         4.95071        -0.50283
   C       17.14094         3.64784        -2.91552
  Cl       18.33510         6.46912        -4.01560
   C       17.70121         8.21554         1.42657
   C       17.57280         8.88427         2.66862
   C       16.43573         8.66783         3.47244
   C       15.45853         7.82762         2.95309
   S       13.96588         7.40606         3.73945
   C       16.32084         9.28058         4.78080
   C       17.28906         9.40630         5.73499
   C       16.82729        10.06464         6.89545
   C       15.51974        10.44966         6.84389
   S       14.82426         9.98537         5.32756
   C       14.71748        11.16316         7.86952
  Cl       17.84646        10.34801         8.25613
   C       18.67823         9.72847         2.93161
   C       19.64173         9.68793         1.96538
   S       19.21593         8.60427         0.65504
   C       20.87009        10.40247         1.92518
   C       21.85382        10.33365         0.96104
   C       22.92925        11.17820         1.24843
   C       22.75623        11.89494         2.44279
   S       21.27715        11.52858         3.21357
   C       23.89109        12.72338         2.64427
   C       24.78152        12.52773         1.57655
   C       24.20858        11.54827         0.66517
   C       24.76009        11.07657        -0.48944
   C       24.11095        10.11753        -1.29559
   N       23.59136         9.33786        -1.95644
   C       26.01828        11.50890        -0.95958
   N       27.03850        11.84978        -1.35714
   C       25.93563        13.30374         1.67827
   C       25.92541        14.08811         2.81755
   S       24.47364        13.86386         3.77610
   C       26.94995        14.98719         3.20570
   C       28.12613        15.23827         2.52473
   C       28.95466        16.20574         3.18317
   S       30.40111        16.45199         2.25604
   C       29.77190        15.24942         1.08203
   N       28.63520        14.74636         1.36513
   C       30.56924        14.91130        -0.11254
   C       28.42732        16.68403         4.33894
   S       26.89255        15.95724         4.65303
   H       -3.52003        -2.92775         5.83294
   H       -1.53151        -2.00509         7.22329
   H        3.11458        -1.08587         7.09353
   H        1.65133         0.27886        11.54700
   H       -0.00099        -0.32890        11.34788
   H        0.36641         1.35135        10.96527
   H       -0.03569         0.87382         0.77345
   H       -1.89921        -1.95601        -2.74974
   H       -2.90693        -2.90824        -1.64613
   H       -1.28987        -3.47071        -2.06167
   H        2.07843         0.01582         1.39560
   H        5.10194         1.80367         4.53396
   H        6.08720         1.59113        -0.31980
   H        4.02334         0.60877         0.56958
   H        9.29919         2.43661         5.03318
   H        8.87461         1.15342         3.90211
   H        7.23125         1.88859         6.37334
   H        8.35888         0.54490         6.23931
   H        6.90048         0.55894         5.25498
   H        8.03953         4.54279         5.09566
   H        6.48022         3.75101         5.33797
   H        7.17858         5.57254         2.98837
   H        6.16794         6.00080         4.37096
   H        5.62755         4.76773         3.22949
   H       10.12852         4.38001         3.59142
   H       10.49132         3.98703        -0.65875
   H        8.36048         2.75957        -0.75667
   H       12.24892         4.94275         0.50768
   H       11.69558         5.83066         3.38229
   H       14.33502         5.82070         0.50165
   H       17.85278         8.12956        -1.60743
   H       17.46141         3.85407        -3.93365
   H       16.13555         3.22958        -2.93468
   H       17.80654         2.90100        -2.48236
   H       18.28229         9.00789         5.64110
   H       15.30206        11.27602         8.77921
   H       13.80752        10.60960         8.09646
   H       14.42851        12.15150         7.51221
   H       18.75193        10.36326         3.79603
   H       21.77639         9.69480         0.09964
   H       26.75447        13.32261         0.98276
   H       31.54267        14.52125         0.18243
   H       30.73569        15.80150        -0.71814
   H       30.03917        14.16540        -0.69890
   H       28.82502        17.40436         5.02346
*
