# ORCA input file
# SCF done       -233.007685724251          0.000865180213
! CAM-B3LYP def2-SVP def2/J RIJCOSX Grid4 TightSCF
%maxcore 5000
%tddft
    Mode sTDDFT
    Ethresh 5.0
    maxcore 5000
end

%pal
  nprocs 6
  end
* xyz 0 1
   C       -4.33785        -0.46072         3.17804
   C       -5.37198        -1.30652         2.85929
   N       -6.72018        -0.86779         2.99387
   O       -6.89823         0.19124         3.56333
   O       -7.60758        -1.55728         2.53546
   C       -4.94746        -2.59273         2.41087
   C       -5.86072        -3.72061         2.08083
   C       -3.57374        -2.66868         2.38846
   S       -2.82665        -1.18516         2.93240
   C       -2.73047        -3.76127         1.99650
   C       -2.98097        -4.75875         1.10276
   C       -1.90831        -5.67637         0.96100
   C       -1.84366        -6.80740         0.12330
   C       -2.91656        -7.11771        -0.80102
   C       -3.60064        -6.25925        -1.61226
   C       -4.59535        -6.90834        -2.37630
   C       -4.68803        -8.25171        -2.15695
   S       -3.51236        -8.74480        -0.98531
   C       -5.61597        -9.23444        -2.77077
  Cl       -5.60090        -6.05573        -3.48621
   C       -0.70716        -7.59824         0.23699
   C        0.37539        -7.28547         1.09565
   C        0.34391        -6.11153         1.87463
   C       -0.82101        -5.35509         1.80810
   S       -1.13395        -3.89953         2.70856
   C        1.48452        -5.71689         2.67495
   C        2.80385        -5.76958         2.32555
   C        3.65656        -5.29155         3.34365
   C        3.00995        -4.87855         4.47237
   S        1.29977        -5.06944         4.28165
   C        3.58638        -4.33969         5.72937
  Cl        5.36787        -5.23719         3.15674
   C        1.38516        -8.27688         1.05724
   C        1.12242        -9.29043         0.17937
   S       -0.40373        -9.06516        -0.65029
   C        1.91986       -10.44184        -0.08003
   C        3.03453       -10.86429         0.61773
   C        3.55818       -12.04878         0.09572
   C        2.84016       -12.52123        -1.01344
   S        1.51612       -11.51887        -1.40489
   C        3.44542       -13.72504        -1.46351
   C        4.53529       -14.01829        -0.62994
   C        4.64613       -12.97366         0.37588
   C        5.56991       -12.88097         1.37486
   C        5.57236       -11.80980         2.29298
   N        5.57431       -10.93952         3.03997
   C        6.57946       -13.84905         1.55991
   N        7.40140       -14.63232         1.71879
   C        5.19087       -15.19898        -0.98891
   C        4.61436       -15.79375        -2.09157
   S        3.23512       -14.88754        -2.69533
   C        5.00407       -17.00148        -2.73363
   C        4.50884       -17.52051        -3.89548
   C        5.09599       -18.75388        -4.26261
   C        4.84590       -19.52337        -5.41707
   C        3.85996       -19.15275        -6.41146
   C        3.94696       -19.30070        -7.76631
   C        2.77809       -18.88387        -8.43930
   C        1.78546       -18.42944        -7.62150
   S        2.30098       -18.50625        -5.97067
   C        0.43757       -17.92244        -7.98177
  Cl        2.63474       -18.94976       -10.15396
   C        5.59542       -20.68817        -5.55539
   C        6.55257       -21.11537        -4.60453
   C        6.83066       -20.32753        -3.46814
   C        6.07785       -19.16717        -3.32631
   S        6.24108       -18.01730        -2.02720
   C        7.85827       -20.71670        -2.52691
   C        9.06880       -21.29516        -2.79073
   C        9.81743       -21.54060        -1.61987
   C        9.19906       -21.16498        -0.46162
   S        7.65237       -20.47351        -0.81166
   C        9.68767       -21.28283         0.93480
  Cl       11.38048       -22.25888        -1.66554
   C        7.10193       -22.37960        -4.92927
   C        6.64144       -22.89093        -6.10449
   S        5.44549       -21.83964        -6.85109
   C        6.94405       -24.13521        -6.74878
   C        8.14317       -24.81458        -6.93436
   N        9.41155       -24.31230        -6.54965
   O        9.46604       -23.45986        -5.68127
   O       10.38946       -24.74766        -7.12574
   C        7.99796       -26.03296        -7.67397
   C        9.09646       -26.98339        -7.99948
   C        6.70516       -26.23823        -8.03213
   S        5.64955       -24.98114        -7.52344
   H       -4.42875         0.54777         3.53073
   H       -6.77031        -3.65705         2.67212
   H       -5.36957        -4.67234         2.26820
   H       -6.15645        -3.67553         1.03280
   H       -3.89295        -4.83993         0.54417
   H       -3.38035        -5.21160        -1.70282
   H       -6.26225        -8.73175        -3.48583
   H       -6.23345        -9.70762        -2.00787
   H       -5.05951       -10.01757        -3.28437
   H        3.15920        -6.09230         1.36446
   H        3.43447        -5.03901         6.55163
   H        3.10976        -3.39806         5.99728
   H        4.65365        -4.17659         5.60208
   H        2.26235        -8.24797         1.67551
   H        3.43059       -10.33990         1.46719
   H        6.04533       -15.61580        -0.48675
   H        3.75484       -17.01753        -4.47245
   H        4.82061       -19.65534        -8.28042
   H        0.33633       -17.89200        -9.06370
   H        0.28419       -16.92104        -7.58137
   H       -0.33844       -18.56934        -7.57296
   H        9.43762       -21.51464        -3.77617
   H        8.99945       -21.87881         1.53322
   H        9.76736       -20.29937         1.39679
   H       10.66558       -21.75746         0.94035
   H        7.78179       -22.90478        -4.28904
   H        9.67771       -27.21867        -7.11005
   H        9.77925       -26.53917        -8.72150
   H        8.68359       -27.89985        -8.41298
   H        6.30614       -27.06840        -8.57965
*
