# ORCA input file
# SCF done       -145.854772534883          0.000476057357
! CAM-B3LYP def2-SVP def2/J RIJCOSX Grid4 TightSCF
%maxcore 5000
%tddft
    Mode sTDDFT
    Ethresh 5.0
    maxcore 5000
end

%pal
  nprocs 6
  end
* xyz 0 1
   C        1.24011         1.85796         1.62685
   C        0.40988         2.48844         2.51260
   C        0.72338         2.68575         3.87415
   N        0.94111         2.87783         4.98417
   C       -0.88806         2.93715         2.19159
   N       -1.96665         3.27555         1.99396
   C        2.48073         1.17066         1.96372
   C        2.80400         0.26569         0.90917
   C        3.90403        -0.54151         0.96853
   C        4.74931        -0.47266         2.09823
   C        4.44015         0.44047         3.14846
   C        3.29213         1.26046         3.06350
   C        5.29608         0.50398         4.26698
   C        6.40286        -0.29647         4.34737
   C        6.70599        -1.19544         3.31356
   C        5.89678        -1.28216         2.21338
   C        1.80656         0.38964        -0.16537
   O        1.71427        -0.24888        -1.18657
   C        0.94264         1.54382         0.23849
   C        0.17890         2.15679        -0.69058
   C       -0.44574         3.44999        -0.60895
   C       -1.68243         3.72744        -1.21148
   N       -2.24238         4.91123        -1.16446
   C       -1.61162         5.87397        -0.49279
   N       -0.41545         5.73055         0.07794
   C        0.16072         4.55612         0.00537
   C       -2.25481         7.17525        -0.40843
   C       -3.52731         7.41136        -0.94087
   N       -4.09893         8.59382        -0.88976
   C       -3.42523         9.57982        -0.29557
   N       -2.21848         9.45578         0.25888
   C       -1.64289         8.27514         0.20263
   C       -4.05192        10.89508        -0.26095
   C       -5.28822        11.14380        -0.86342
   N       -5.85197        12.33379        -0.84245
   C       -5.20262        13.30218        -0.20265
   N       -4.00881        13.18497         0.37425
   C       -3.44419        11.99722         0.34950
   C       -5.82809        14.62764        -0.18952
   C       -6.12816        15.28220         0.94330
   C       -6.65052        16.63870         1.10019
   C       -6.94756        17.51497         0.09509
   C       -7.44521        18.82088         0.30130
   N       -7.85131        19.88955         0.40135
   C       -6.80535        17.25129        -1.28526
   N       -6.71686        17.12161        -2.42207
   C       -6.77422        16.89737         2.52748
   C       -6.38450        15.73143         3.24924
   C       -6.01255        14.66554         2.30519
   O       -5.74480        13.51623         2.56067
   C       -6.40130        15.69005         4.61436
   C       -6.80930        16.83384         5.33535
   C       -7.20112        18.00390         4.62158
   C       -7.17817        18.01723         3.20952
   C       -7.60998        19.13977         5.35104
   C       -7.63048        19.12267         6.71873
   C       -7.24372        17.97046         7.42040
   C       -6.84192        16.85087         6.74384
   H        4.12702        -1.22425         0.16216
   H        3.08693         1.95033         3.86724
   H        5.05692         1.19526         5.06160
   H        7.05130        -0.24168         5.20879
   H        7.58404        -1.81857         3.39325
   H        6.12505        -1.97230         1.41448
   H        0.07996         1.63422        -1.63730
   H       -2.23706         2.95513        -1.72846
   H        1.16033         4.48784         0.41926
   H       -4.08434         6.61667        -1.41830
   H       -0.66142         8.18663         0.64876
   H       -5.82431        10.35758        -1.37722
   H       -2.47576        11.90595         0.82189
   H       -6.03679        15.04666        -1.16437
   H       -6.10327        14.79330         5.13696
   H       -7.48208        18.91744         2.69940
   H       -7.90673        20.02392         4.80623
   H       -7.94498        19.99702         7.26851
   H       -7.26615        17.97507         8.49987
   H       -6.54353        15.96119         7.27867
*
