# ORCA input file
# SCF done       -163.694778662814          0.000824711465
! CAM-B3LYP def2-SVP def2/J RIJCOSX Grid4 TightSCF
%maxcore 5000
%tddft
    Mode sTDDFT
    Ethresh 5.0
    maxcore 5000
end

%pal
  nprocs 6
  end
* xyz 0 1
   C        2.02294         0.29006         3.31096
   C        2.60641         0.19666         2.07724
   C        2.64113        -1.00742         1.35595
   C        2.08882        -2.17833         1.84268
   C        1.47546        -2.11109         3.12708
   C        1.44436        -0.86926         3.86071
   N        0.84139        -0.94875         5.04274
  Se        0.28192        -2.58207         5.29754
   N        0.89888        -3.12901         3.74904
   C        2.11069        -3.41681         1.11532
   C        2.65388        -3.65110        -0.13396
   C        2.48759        -4.97492        -0.54086
   C        1.81078        -5.75346         0.41340
   S        1.38357        -4.85674         1.80245
   C        1.68762        -7.07346        -0.09671
   C        2.28401        -7.12419        -1.36699
   C        2.80883        -5.80505        -1.68799
   C        3.46121        -5.43260        -2.82695
   C        3.71277        -6.33887        -3.87802
   N        3.91796        -7.07526        -4.73278
   C        3.92624        -4.11625        -3.02666
   N        4.30376        -3.04609        -3.19212
   C        2.20721        -8.38537        -1.95612
   C        1.55691        -9.29609        -1.14387
   S        1.03361        -8.57949         0.37433
   C        1.29444       -10.66058        -1.42548
   C        0.65283       -11.58908        -0.62687
   C        0.57189       -12.83898        -1.24277
   C        1.15667       -12.85703        -2.51965
   S        1.80746       -11.34275        -2.96341
   C        1.02174       -14.15915        -3.06227
   C        0.35233       -14.96806        -2.12938
   C        0.04862       -14.16581        -0.95379
   C       -0.59080       -14.57219         0.18020
   C       -1.05368       -15.89433         0.34736
   N       -1.42963       -16.96851         0.48697
   C       -0.83083       -13.69738         1.26063
   N       -1.02711       -12.98871         2.14026
   C        0.16808       -16.27631        -2.57953
   C        0.69118       -16.46527        -3.84532
   S        1.42490       -15.00261        -4.49040
   C        0.69183       -17.64978        -4.62441
   C        1.21903       -17.81609        -5.89187
   C        1.04447       -19.11693        -6.36187
   C        0.37924       -19.94785        -5.44594
   S       -0.03225       -19.12778        -4.00514
   C        0.25462       -21.24456        -6.01235
   C        0.84413       -21.22541        -7.28785
   C        1.35765       -19.89333        -7.55255
   C        1.99708       -19.45740        -8.67623
   C        2.24515       -20.30812        -9.77331
   N        2.44860       -20.99666       -10.66751
   C        2.45174       -18.12936        -8.81397
   N        2.81823       -17.04849        -8.92541
   C        0.77694       -22.46223        -7.92930
   C        0.14400       -23.41747        -7.15631
   S       -0.38137       -22.77763        -5.61073
   C       -0.09741       -24.79389        -7.48882
   C        0.31797       -25.36721        -8.67700
   C        0.07744       -26.71566        -8.98537
   C       -0.58535       -27.55159        -8.12910
   C       -1.03424       -27.02565        -6.90316
   C       -0.79077       -25.64154        -6.57713
   N       -1.26020       -25.26642        -5.39629
  Se       -2.03907       -26.63631        -4.62538
   N       -1.69101       -27.69996        -5.96448
   H        1.99299         1.21215         3.86761
   H        3.05782         1.07078         1.63259
   H        3.11734        -1.00760         0.38850
   H        3.14498        -2.89766        -0.72115
   H        2.59781        -8.64324        -2.92424
   H        0.27000       -11.35100         0.34933
   H       -0.31902       -17.06068        -2.02845
   H        1.70238       -17.02088        -6.43071
   H        1.16964       -22.65409        -8.91042
   H        0.84838       -24.76684        -9.39878
   H        0.43318       -27.09372        -9.93200
   H       -0.77132       -28.58725        -8.36113
*
