# ORCA input file
# SCF done       -184.006226680957          0.000468564512
! CAM-B3LYP def2-SVP def2/J RIJCOSX Grid4 TightSCF
%maxcore 5000
%tddft
    Mode sTDDFT
    Ethresh 5.0
    maxcore 5000
end

%pal
  nprocs 6
  end
* xyz 0 1
   C       -4.42776         5.67072         2.12038
   N       -4.18122         6.71436         2.85561
   O       -4.79451         6.54953         4.03065
   C       -5.45081         5.37280         4.04501
   C       -6.31685         5.03815         5.16759
   O       -6.39796         5.65826         6.19400
   C       -5.23951         4.73586         2.82282
   C       -5.67683         3.46539         2.33984
   S       -5.96085         3.25476         0.63522
   C       -6.41235         1.58157         0.81983
   C       -6.31693         1.22610         2.14774
   C       -5.89838         2.27623         3.01940
   C       -5.74771         1.81441         4.35288
   C       -6.06877         0.49742         4.47640
   C       -6.02097        -0.29572         5.70935
   O       -5.66575         0.12509         6.78098
   O       -6.42504        -1.55195         5.48263
   C       -6.42466        -2.42321         6.60298
   S       -6.56984        -0.27005         2.98592
   C       -6.78153         0.78670        -0.29658
   C       -6.84060         1.16769        -1.60780
   C       -7.21568         0.12347        -2.48413
   C       -7.33372         0.16436        -3.88862
   C       -7.04380         1.35028        -4.66838
   C       -7.69801         1.79789        -5.78062
   C       -7.10917         2.95487        -6.33492
   C       -6.00022         3.39656        -5.67360
   S       -5.67448         2.37211        -4.31705
   C       -5.13692         4.56449        -5.97904
  Cl       -7.74841         3.72849        -7.73312
   C       -7.71699        -1.01934        -4.51063
   C       -7.96556        -2.22832        -3.81294
   C       -7.84594        -2.26999        -2.40899
   C       -7.48141        -1.08099        -1.78513
   S       -7.22235        -0.89156        -0.07204
   C       -8.05037        -3.47755        -1.63534
   C       -8.62254        -3.58901        -0.39984
   C       -8.59854        -4.90940         0.09768
   C       -8.00623        -5.81665        -0.73161
   S       -7.46685        -5.03000        -2.17555
   C       -7.79876        -7.27182        -0.52595
  Cl       -9.26532        -5.32308         1.62979
   C       -8.30823        -3.28167        -4.69273
   C       -8.29149        -2.92379        -6.01050
   S       -7.88118        -1.23613        -6.23150
   C       -8.54524        -3.74968        -7.13965
   C       -8.51331        -3.38401        -8.47026
   C       -8.78011        -4.46481        -9.31312
   C       -9.01648        -5.65830        -8.61382
   S       -8.91430        -5.45259        -6.92199
   C       -9.26132        -6.69999        -9.54944
   C       -9.17606        -6.15196       -10.84331
   C       -8.87469        -4.73364       -10.73952
   C       -8.71087        -3.84529       -11.76142
   C       -8.41828        -2.48356       -11.53627
   N       -8.18046        -1.37614       -11.35854
   C       -8.82338        -4.23510       -13.11243
   N       -8.91452        -4.55524       -14.20984
   C       -9.39243        -7.10118       -11.83681
   C       -9.63946        -8.35794       -11.30838
   S       -9.60649        -8.36792        -9.55030
   C       -9.89030        -9.52848       -12.07319
   C      -10.15326       -10.84130       -11.67316
   O      -10.32421       -11.60625       -12.77791
   N      -10.18309       -10.84727       -13.87202
   C       -9.92965        -9.63075       -13.49765
   C      -10.26187       -11.45576       -10.37760
   O      -10.12508       -10.86983        -9.32530
   H       -4.03069         5.58470         1.12935
   H       -6.94116         4.14762         4.96504
   H       -5.39906         2.40335         5.18116
   H       -6.80908        -3.37481         6.24567
   H       -7.06096        -2.02204         7.39433
   H       -5.41096        -2.53885         6.99188
   H       -6.61957         2.17081        -1.92317
   H       -8.58964         1.35083        -6.17868
   H       -5.47042         5.03224        -6.90187
   H       -4.09848         4.25552        -6.09186
   H       -5.18293         5.29850        -5.17473
   H       -9.08209        -2.77587         0.13008
   H       -6.74028        -7.49278        -0.38858
   H       -8.14936        -7.83624        -1.38839
   H       -8.34081        -7.59685         0.35829
   H       -8.55993        -4.27578        -4.37190
   H       -8.30102        -2.38002        -8.79121
   H       -9.37207        -6.89951       -12.89196
   H       -9.78134        -8.86187       -14.22761
   H      -10.48679       -12.53381       -10.41998
*
