# ORCA input file
# SCF done       -211.699624514482          0.000387654842
! CAM-B3LYP def2-SVP def2/J RIJCOSX Grid4 TightSCF
%maxcore 5000
%tddft
    Mode sTDDFT
    Ethresh 5.0
    maxcore 5000
end

%pal
  nprocs 6
  end
* xyz 0 1
   C        8.55045        -4.13555         2.36037
   C        8.67513        -5.16704         3.43527
   O        9.57491        -5.96864         3.54740
   C        7.51957        -4.93376         4.31621
   C        6.68374        -3.97037         3.74761
   C        7.21608        -3.57470         2.44858
   C        6.50029        -3.02027         1.42043
   C        6.99462        -2.88803         0.10759
   N        7.33105        -2.79091        -0.98585
   C        5.18944        -2.51998         1.55064
   N        4.14007        -2.05784         1.60827
   C        5.52743        -3.54415         4.41242
   C        5.22622        -4.09938         5.62812
   C        6.03853        -5.09002         6.22332
   C        7.22291        -5.52497         5.56059
   C        8.03296        -6.50903         6.16202
   C        7.68066        -7.04518         7.37027
   C        6.51345        -6.62297         8.02600
   C        5.71059        -5.66666         7.46688
   C        9.62999        -3.79008         1.61975
   C        9.80653        -2.61290         0.84201
   C       10.69235        -2.49668        -0.32158
   N       10.70368        -1.31736        -0.87037
   C        9.85474        -0.55655        -0.12877
   C        9.28141        -1.34633         0.97699
   C        8.47687        -0.49603         1.81679
   S        7.89136        -0.86705         3.31468
   C        8.44512         0.76857         1.12990
   C        9.33620         0.70961        -0.04490
   N        9.38017         1.91687        -0.67471
   C        8.61179         2.70195         0.02317
   C        7.97576         2.06305         1.17858
   C        7.06954         2.70179         2.09167
   C        7.15765         4.06198         2.32394
   C        6.33736         4.65496         3.29568
   C        6.27961         5.96938         3.76136
   C        7.02802         7.13486         3.22246
   C        6.03377         8.17922         2.66055
   N        6.67546         8.95207         1.62993
   C        7.98586         7.74024         4.26245
   N        8.85194         8.74121         3.65371
   C        5.28803         5.99185         4.81074
   C        4.88297         6.97346         5.63962
   C        3.84032         6.73639         6.67792
   C        3.24622         5.37036         6.67238
   C        3.68985         4.38773         5.86394
   C        4.72200         4.64237         4.93148
   C        5.37731         3.83522         4.01592
   C        5.26640         2.46186         3.71149
   C        6.09437         1.91649         2.78163
   C        2.86290         7.87798         6.58856
   C        1.56114         7.79161         6.30451
   C        0.71390         8.94475         6.20986
   C       -0.74736         8.87537         6.21028
   N       -1.34650        10.03074         6.14023
   C       -0.34966        10.95098         6.06456
   C        0.97637        10.29473         6.11335
   C        2.00596        11.29576         5.98931
   S        3.64661        11.11868         6.07152
   C        1.29671        12.53425         5.82259
   C       -0.15613        12.30165         5.93018
   N       -0.83462        13.47623         5.86439
   C        0.07122        14.40150         5.72562
   C        1.44459        13.89625         5.66299
   C        2.61131        14.70026         5.52980
   C        3.78605        14.34506         4.96003
   C        5.04014        15.10512         5.25533
   O        5.09957        16.21227         5.73958
   C        6.13140        14.18759         4.88797
   C        5.59979        13.05388         4.27153
   C        4.15469        13.20313         4.14591
   C        3.36380        12.58197         3.21387
   C        2.01394        12.91401         2.98477
   N        0.92095        13.16418         2.73858
   C        3.82859        11.56984         2.35416
   N        4.16533        10.73741         1.63790
   C        6.42819        11.99689         3.87882
   C        7.77724        12.09823         4.09284
   C        8.35262        13.24568         4.68353
   C        7.51807        14.32382         5.10103
   C        8.09909        15.46141         5.69629
   C        9.45479        15.53264         5.86512
   C       10.28200        14.47602         5.45298
   C        9.74420        13.35738         4.87739
   H        4.89655        -2.78266         3.98407
   H        4.34105        -3.77888         6.15864
   H        8.92771        -6.82596         5.64990
   H        8.30082        -7.80036         7.82954
   H        6.25383        -7.06022         8.97880
   H        4.81146        -5.34023         7.96942
   H       10.48071        -4.46243         1.67734
   H       11.28022        -3.30114        -0.72727
   H        8.45802         3.72151        -0.28524
   H        7.89220         4.65673         1.80217
   H        7.63142         6.80010         2.37248
   H        5.64116         8.78027         3.49633
   H        5.18594         7.65522         2.20857
   H        7.42886         9.50663         2.02125
   H        6.00743         9.55132         1.15894
   H        8.54960         6.91279         4.72744
   H        7.42076         8.24120         5.05267
   H        9.37703         8.32345         2.89065
   H        9.52404         9.06993         4.34047
   H        5.28231         7.97555         5.59143
   H        4.34552         6.86450         7.65340
   H        2.46121         5.19008         7.39100
   H        3.26048         3.39791         5.91061
   H        4.53285         1.85485         4.21956
   H        6.01763         0.86998         2.53478
   H        3.30560         8.85093         6.74836
   H        1.08043         6.83448         6.15276
   H       -1.31816         7.96504         6.27583
   H       -0.20512        15.43819         5.64770
   H        2.57801        15.68353         5.98888
   H        6.00684        11.11015         3.43707
   H        8.42354        11.27987         3.80819
   H        7.45418        16.26739         6.00918
   H        9.89943        16.40634         6.31748
   H       11.34984        14.55396         5.59458
   H       10.37883        12.54360         4.55695
*
