# ORCA input file
# SCF done       -184.860448974661          0.000599148456
! CAM-B3LYP def2-SVP def2/J RIJCOSX Grid4 TightSCF
%maxcore 5000
%tddft
    Mode sTDDFT
    Ethresh 5.0
    maxcore 5000
end

%pal
  nprocs 6
  end
* xyz 0 1
   C        3.27063        -1.50538        -0.00753
   S        3.82753        -0.24214        -1.01026
   C        3.15092         0.95651         0.07249
   C        2.52660         0.34353         1.15644
   C        2.58325        -1.06380         1.09038
   C        2.00710        -1.96499         2.14492
   C        1.31355        -3.17933         1.58709
   C        0.66411        -3.22245         0.43928
   C        1.02442        -1.17620         3.02627
   C        1.64714         0.14150         3.47157
   C        1.85552         1.06297         2.27292
   C        3.36943         2.34202        -0.11625
   N        3.11845         3.20813         0.86352
   C        3.62832         4.38514         0.46390
   C        4.24787         4.27036        -0.86348
   C        4.81301         5.56237        -1.28847
   O        5.40525         5.82592        -2.31220
   C        4.47947         6.44054        -0.15163
   C        3.76348         5.68470         0.89285
   N        3.43725         6.49184         1.93103
   C        3.88833         7.67863         1.59489
   C        4.54045         7.71983         0.30719
   C        4.03447         2.98735        -1.27908
   C        4.33516         2.43138        -2.56581
   C        3.48449         1.65279        -3.26133
   C        3.71364         1.11128        -4.57798
   C        2.64041         0.65373        -5.31010
   C        2.83191         0.12793        -6.60180
   C        1.92686        -0.36488        -7.53397
   C        0.44524        -0.43569        -7.37650
   C       -0.27182         0.47061        -8.39616
   N       -1.57645         0.83461        -7.88073
   C       -0.05135        -1.89092        -7.44635
   N       -1.45245        -1.97562        -7.06092
   C        2.69596        -0.78076        -8.68072
   C        2.33153        -1.29240        -9.87196
   C        3.34517        -1.70280       -10.88931
   C        4.75770        -1.38246       -10.53426
   C        5.10502        -0.82518        -9.35844
   C        4.11777        -0.51823        -8.39378
   C        4.18451         0.04085        -7.13368
   C        5.27047         0.50209        -6.35343
   C        5.03652         1.02574        -5.12419
   C        3.11068        -3.18195       -11.06176
   C        3.81410        -4.13222       -10.43019
   C        3.51463        -5.51988       -10.60037
   N        2.54549        -5.92775       -11.40541
   C        2.54164        -7.27404       -11.32555
   C        3.57714        -7.75998       -10.40400
   C        3.56231        -9.22439       -10.35054
   O        4.27667        -9.97232        -9.70916
   C        2.46724        -9.57657       -11.27300
   C        1.87132        -8.35667       -11.84540
   N        0.86579        -8.66892       -12.69977
   C        0.80628        -9.97972       -12.69141
   C        1.77746       -10.60991       -11.82437
   C        4.21543        -6.63812        -9.92550
   C        5.29317        -6.49955        -9.01340
   C        5.87391        -7.55416        -8.39054
   C        6.97134        -7.45820        -7.50094
   S        7.76435        -5.93065        -7.17629
   C        8.89410        -6.70162        -6.14448
   C        8.68944        -8.04666        -6.03891
   C        7.58808        -8.48569        -6.80856
   C        7.10401        -9.90556        -6.79958
   C        5.84147        -9.98044        -5.97933
   C        4.68053       -10.39696        -6.44653
   C        8.18725       -10.83582        -6.23126
   C        8.80429       -10.27832        -4.95208
   C        9.55099        -8.98044        -5.24899
   H        3.46869        -2.52284        -0.28361
   H        2.83733        -2.30368         2.77911
   H        1.32332        -4.04580         2.23465
   H        0.62133        -2.37548        -0.22547
   H        0.15160        -4.11065         0.11192
   H        0.75217        -1.78348         3.89104
   H        0.11526        -0.97736         2.45479
   H        2.60675        -0.05479         3.95462
   H        1.00068         0.63466         4.19829
   H        2.44195         1.94269         2.54059
   H        0.88962         1.43343         1.91535
   H        3.76001         8.51500         2.26019
   H        4.96957         8.59021        -0.14881
   H        5.25204         2.78778        -3.01506
   H        2.50927         1.44261        -2.83809
   H        1.64310         0.71912        -4.89889
   H        0.18333        -0.04370        -6.38882
   H       -0.31093        -0.03967        -9.37270
   H        0.30968         1.39039        -8.52356
   H       -2.11168        -0.01465        -7.72042
   H       -2.07538         1.41207        -8.54838
   H        0.60858        -2.51037        -6.81397
   H        0.02874        -2.26681        -8.46912
   H       -1.56192        -1.70694        -6.08793
   H       -1.78637        -2.92849        -7.15899
   H        1.29968        -1.47419       -10.13275
   H        3.09950        -1.21912       -11.84546
   H        5.49923        -1.64073       -11.27487
   H        6.13909        -0.60453        -9.13653
   H        6.27468         0.43190        -6.74476
   H        5.86183         1.36902        -4.52068
   H        2.29322        -3.48396       -11.70092
   H        4.62843        -3.86598        -9.77166
   H        0.07941       -10.49366       -13.29649
   H        1.89209       -11.66614       -11.67939
   H        5.66206        -5.50159        -8.81437
   H        5.49575        -8.54964        -8.57663
   H        9.65672        -6.11524        -5.67020
   H        6.86404       -10.22220        -7.81936
   H        5.93594        -9.66162        -4.94942
   H        4.55394       -10.70422        -7.47111
   H        3.80312       -10.43999        -5.82243
   H        8.97388       -10.96443        -6.97867
   H        7.74287       -11.81390        -6.03859
   H        9.49616       -11.00774        -4.52681
   H        8.02350       -10.09258        -4.21321
   H       10.44812        -9.20518        -5.83567
   H        9.87797        -8.49939        -4.32456
*
