# ORCA input file
# SCF done       -186.586175191423          0.000596154513
! CAM-B3LYP def2-SVP def2/J RIJCOSX Grid4 TightSCF
%maxcore 5000
%tddft
    Mode sTDDFT
    Ethresh 5.0
    maxcore 5000
end

%pal
  nprocs 6
  end
* xyz 0 1
   C        9.98076         3.07802         3.02014
   C        9.60826         3.62691         4.22175
   C       10.38149         4.03310         5.33986
   C        9.74792         4.56191         6.42258
   C        8.33726         4.71199         6.45462
   C        7.55329         4.33233         5.39945
   C        8.16152         3.78319         4.26003
   C        7.61481         3.32277         3.05152
   C        8.78442         2.85087         2.21102
   O        8.73604         2.37954         1.09151
   C        6.28101         3.30694         2.68785
   C        5.79789         2.86254         1.46662
   C        4.44033         2.89698         1.16204
   N        3.51605         3.34474         2.03952
   C        2.34919         3.26008         1.41667
   C        2.48889         2.73084         0.04774
   C        1.17509         2.66080        -0.60762
   O        0.91415         2.27131        -1.73484
   C        0.26425         3.16578         0.41909
   C        1.00232         3.52158         1.63788
   N        0.16996         3.98713         2.58740
   C       -1.03347         3.94462         2.03952
   C       -1.04558         3.44477         0.69564
   C        3.82885         2.48886        -0.12784
   C        4.55253         1.99211        -1.24965
   C        3.97261         1.71792        -2.43996
   C        4.64460         1.26862        -3.63021
   C        3.94561         1.27938        -4.82529
   C        4.57147         0.89762        -6.02228
   C        4.10663         0.84125        -7.33633
   C        2.74894         1.15738        -7.85435
   C        1.68232         0.24985        -7.20347
   N        0.58870         0.07054        -8.13415
   C        2.40497         2.64807        -7.67450
   N        1.16409         2.96184        -8.36544
   C        5.19271         0.33773        -8.14305
   C        5.26572         0.03796        -9.45525
   C        6.46781        -0.62476       -10.02659
   C        7.65986        -0.64563        -9.11969
   C        7.57339        -0.33151        -7.80963
   C        6.35194         0.12288        -7.26649
   C        5.95930         0.46400        -5.98145
   C        6.64610         0.43653        -4.74985
   C        6.00701         0.83140        -3.61646
   C        6.17434        -2.10004       -10.23140
   C        5.42005        -2.79472        -9.37017
   C        5.13086        -4.18836        -9.47712
   N        5.56414        -4.96117       -10.45457
   C        5.05439        -6.19274       -10.20551
   C        4.24130        -6.20544        -8.99780
   C        3.69718        -7.54460        -8.75042
   O        2.97675        -7.91396        -7.84300
   C        4.23926        -8.32607        -9.87886
   C        5.06208        -7.46509       -10.74423
   N        5.56651        -8.16941       -11.78344
   C        5.11482        -9.39325       -11.61872
   C        4.28128        -9.56004       -10.45020
   C        4.27810        -4.91089        -8.50021
   C        3.69582        -4.32159        -7.37410
   C        2.87406        -4.97912        -6.48126
   C        2.30305        -4.34988        -5.38214
   C        1.43119        -4.90052        -4.43171
   C        0.95147        -6.21638        -4.30804
   C        0.10170        -6.51955        -3.28165
   C       -0.28137        -5.53915        -2.33440
   C        0.15971        -4.25105        -2.42162
   C        1.01207        -3.88103        -3.48696
   C        1.59473        -2.66216        -3.82497
   C        2.48518        -2.90894        -4.99352
   O        3.21056        -2.08347        -5.50827
   C        1.48851        -1.34168        -3.31135
   C        0.54265        -0.84766        -2.49774
   H       10.97457         2.84035         2.69099
   H       11.45439         3.91760         5.31276
   H       10.31735         4.87904         7.28385
   H        7.88530         5.13724         7.33827
   H        6.48119         4.45117         5.43486
   H        5.54539         3.67310         3.39323
   H        6.49684         2.49298         0.73256
   H       -1.89243         4.26944         2.60072
   H       -1.91317         3.33136         0.07552
   H        5.61740         1.86874        -1.11328
   H        2.90726         1.88383        -2.53859
   H        2.91529         1.60063        -4.82889
   H        2.72030         0.93902        -8.92665
   H        1.37158         0.68480        -6.24224
   H        2.12523        -0.72956        -6.99671
   H        0.17482         0.97787        -8.33056
   H       -0.12143        -0.53826        -7.74394
   H        3.26125         3.24887        -8.02739
   H        2.25982         2.86931        -6.61530
   H        1.29436         2.89321        -9.36994
   H        0.87033         3.90889        -8.15370
   H        4.42615         0.17055       -10.12314
   H        6.72297        -0.18148       -10.99491
   H        8.58174        -1.00220        -9.55140
   H        8.43949        -0.40638        -7.16849
   H        7.67171         0.09954        -4.71757
   H        6.53217         0.80102        -2.67487
   H        6.64523        -2.59675       -11.06589
   H        4.97808        -2.28258        -8.52749
   H        5.37256       -10.16603       -12.32186
   H        3.81726       -10.47536       -10.13918
   H        3.90115        -3.27825        -7.18990
   H        2.65141        -6.02573        -6.64928
   H        1.26123        -6.96892        -5.01678
   H       -0.27876        -7.52371        -3.17045
   H       -0.93206        -5.83215        -1.52367
   H       -0.11833        -3.52398        -1.67587
   H        2.25505        -0.67390        -3.69045
   H       -0.28573        -1.43957        -2.14934
   H        0.55919         0.18631        -2.19910
*
