# ORCA input file
# SCF done       -205.563804133106          0.000628761238
! CAM-B3LYP def2-SVP def2/J RIJCOSX Grid4 TightSCF
%maxcore 5000
%tddft
    Mode sTDDFT
    Ethresh 5.0
    maxcore 5000
end

%pal
  nprocs 6
  end
* xyz 0 1
   C        0.87950        -1.52058        -5.16461
   S        1.76619        -2.97695        -5.24420
   C        1.05684        -3.58171        -3.77129
   C        0.16620        -2.65075        -3.26102
   C        0.07388        -1.48722        -4.05986
   O       -0.71334        -0.39857        -3.82565
   C       -1.55565        -0.24886        -2.79654
   O       -2.20320         0.75483        -2.70918
   C       -1.71654        -1.32306        -1.72389
   O       -2.48571        -1.17379        -0.81771
   S       -0.77193        -2.82286        -1.78356
   C        1.46830        -4.86487        -3.31337
   C        1.01941        -5.49914        -2.20734
   C        1.46266        -6.79064        -1.79134
   C        2.03513        -7.76151        -2.56657
   C        2.19434        -8.95380        -1.77166
   C        2.77753       -10.14279        -2.22634
   N        3.25067       -11.11827        -2.60532
   C        1.68298        -8.72943        -0.51678
   C        1.23541        -7.37062        -0.45228
   C        0.81983        -6.70920         0.68134
   C        0.37792        -7.33654         1.95235
   C        0.28527        -6.34269         2.88633
   C        0.63162        -5.09181         2.26113
   C        0.91187        -5.30692         0.93156
   C        0.68613        -3.86145         2.92867
   N        0.73563        -2.86017         3.48839
   C        0.01119        -8.70594         2.09619
   C       -0.00664        -9.36757         3.27742
   C       -0.29558       -10.76243         3.45494
   C        0.07129       -11.37053         4.64522
   C       -0.08486       -12.75319         4.81358
   C        0.27462       -13.59590         5.86897
   C        0.89727       -13.16151         7.14767
   C       -0.12358       -13.16162         8.31066
   N       -0.61166       -14.50087         8.58423
   C        2.14768       -13.98283         7.52295
   N        3.09761       -13.11244         8.19218
   C       -0.04683       -14.93927         5.45201
   C        0.15752       -16.13575         6.04143
   C       -0.15082       -17.41103         5.33567
   C       -0.90534       -17.24782         4.05605
   C       -1.11525       -16.04621         3.48448
   C       -0.65786       -14.86739         4.11786
   C       -0.67030       -13.53593         3.73923
   C       -1.09802       -12.88722         2.56071
   C       -0.90781       -11.54849         2.42645
   C       -0.81149       -18.40560         6.25670
   C       -0.15197       -19.42326         6.81147
   C       -0.68567       -20.41309         7.71344
   C        0.02807       -20.98007         8.72243
   C       -0.85397       -21.82801         9.50098
   C       -0.44917       -22.61474        10.58586
   N       -0.10913       -23.27238        11.46346
   C       -2.11570       -21.75358         8.97720
   C       -2.07169       -20.91568         7.81095
   C       -3.07675       -20.79566         6.88035
   C       -4.50173       -21.13156         7.07580
   C       -5.11155       -21.06646         5.85472
   C       -4.12553       -20.69498         4.86674
   C       -2.91668       -20.50207         5.48611
   C       -4.38091       -20.54670         3.49789
   N       -4.58670       -20.41070         2.37634
   C       -5.09932       -21.34730         8.35409
   C       -6.25911       -22.01104         8.56362
   C       -6.81693       -22.28171         9.84538
   S       -8.30846       -23.15263         9.98057
   C       -8.28208       -23.13491        11.71770
   C       -7.15260       -22.47136        12.16327
   C       -6.33609       -21.99693        11.11942
   O       -5.15655       -21.32808        11.27075
   C       -4.58767       -20.95715        12.42400
   O       -3.54366       -20.36624        12.38659
   C       -5.23378       -21.26049        13.76661
   O       -4.74032       -20.88017        14.79035
   S       -6.73389       -22.20356        13.85216
   C       -9.36461       -23.77284        12.41152
   C       -9.50426       -23.90381        13.72966
   H        0.97912        -0.76152        -5.91237
   H        2.22727        -5.33475        -3.92352
   H        0.26865        -5.02774        -1.59264
   H        2.29556        -7.69597        -3.60592
   H        1.73509        -9.41443         0.30732
   H       -0.03928        -6.43454         3.90543
   H        1.26969        -4.56463         0.24536
   H       -0.24168        -9.22808         1.18488
   H        0.31000        -8.83873         4.16713
   H        0.52059       -10.77810         5.42947
   H        1.23544       -12.12802         7.02512
   H       -0.92527       -12.44749         8.06332
   H        0.38371       -12.79746         9.20743
   H       -1.28872       -14.78032         7.88290
   H       -1.06584       -14.53908         9.48900
   H        2.62582       -14.35021         6.61121
   H        1.83789       -14.84353         8.13249
   H        2.74841       -12.83529         9.10303
   H        3.98473       -13.58207         8.32893
   H        0.57697       -16.22162         7.03168
   H        0.83584       -17.83342         5.07274
   H       -1.25328       -18.15460         3.58496
   H       -1.63580       -15.96879         2.54147
   H       -1.56136       -13.46203         1.77270
   H       -1.23683       -11.05372         1.52613
   H       -1.86031       -18.23712         6.45205
   H        0.91609       -19.51057         6.64140
   H        1.06567       -20.82129         8.95069
   H       -2.95585       -22.33805         9.29646
   H       -6.15230       -21.21702         5.63809
   H       -1.98503       -20.29018         4.99995
   H       -4.56313       -20.94607         9.19888
   H       -6.80969       -22.41839         7.72692
   H      -10.11917       -24.18140        11.75143
   H       -8.78458       -23.52684        14.43347
   H      -10.36043       -24.40832        14.14088
*
