# ORCA input file
# SCF done       -128.735424563738          0.000419528422
! CAM-B3LYP def2-SVP def2/J RIJCOSX Grid4 TightSCF
%maxcore 5000
%tddft
    Mode sTDDFT
    Ethresh 5.0
    maxcore 5000
end

%pal
  nprocs 6
  end
* xyz 0 1
   C       -1.62289        -0.38076         2.19473
   C       -2.34887        -0.23684         1.01788
   N       -2.21385        -1.08279         0.01404
   C       -1.31424        -2.06026         0.13709
   C       -0.51268        -2.13196         1.29284
   N       -0.69081        -1.31585         2.30875
   C       -1.16390        -3.06764        -0.89212
   N       -0.55706        -4.18885        -0.54999
   C       -0.62190        -5.00300        -1.63020
   C       -1.33431        -4.35164        -2.72216
   C       -1.41012        -5.22975        -3.89851
   O       -1.93109        -5.01526        -4.97092
   C       -0.68377        -6.43432        -3.43940
   C       -0.22325        -6.25178        -2.04547
   N        0.47025        -7.33747        -1.62409
   C        0.47706        -8.15704        -2.64647
   C       -0.21608        -7.65052        -3.81683
   C       -1.65540        -3.08282        -2.29089
   C       -2.29074        -2.10578        -3.10288
   C       -2.34070        -0.76861        -2.89306
   C       -2.96568         0.15067        -3.77255
   N       -2.89574         1.50761        -3.53290
   C       -3.57469         2.15858        -4.51341
   C       -3.95066         3.40630        -4.97619
   C       -4.71277         3.17782        -6.14145
   N       -4.78785         1.81651        -6.37157
   C       -4.09939         1.17138        -5.39991
   C       -3.71439        -0.07944        -4.93739
   C       -5.35069         4.09528        -6.99183
   C       -5.29504         5.45681        -6.87747
   C       -5.99321         6.29658        -7.76450
   N       -6.78419         5.81027        -8.72853
   C       -7.29536         6.87236        -9.35587
   C       -6.80565         8.13627        -8.77354
   C       -7.38581         9.28914        -9.48616
   O       -7.20299        10.47216        -9.27865
   C       -8.23310         8.64957       -10.50012
   C       -8.15353         7.18186       -10.39185
   N       -8.93081         6.58889       -11.32405
   C       -9.47870         7.58138       -11.99416
   C       -9.08721         8.88925       -11.53438
   C       -5.96522         7.77955        -7.75196
   C       -5.19907         8.58352        -6.85586
   C       -5.18796         9.93054        -6.88327
   C       -4.39426        10.71762        -5.97057
   C       -4.40168        12.12245        -6.02702
   N       -3.68517        12.85896        -5.20378
   C       -2.94158        12.22984        -4.30494
   C       -2.92171        10.84118        -4.23867
   N       -3.63725        10.09710        -5.05770
   H       -1.78332         0.25254         3.05538
   H       -3.07772         0.55094         0.88217
   H        0.27024        -2.87089         1.37267
   H        0.96515        -9.11335        -2.57315
   H       -0.31551        -8.16424        -4.75258
   H       -2.70503        -2.50994        -4.01719
   H       -1.88345        -0.35077        -2.00826
   H       -2.41070         1.92242        -2.75587
   H       -3.72995         4.36473        -4.55278
   H       -5.27235         1.40036        -7.14878
   H       -3.93436        -1.03719        -5.36170
   H       -5.93875         3.70088        -7.81024
   H       -4.70806         5.91441        -6.09621
   H      -10.15419         7.37640       -12.80661
   H       -9.41921         9.82269       -11.94401
   H       -4.58920         8.08098        -6.11798
   H       -5.78260        10.47475        -7.60370
   H       -5.00164        12.64953        -6.75598
   H       -2.36071        12.84901        -3.63673
   H       -2.31892        10.31210        -3.51233
*
