# ORCA input file
# SCF done       -235.351056110936          0.000723718083
! CAM-B3LYP def2-SVP def2/J RIJCOSX Grid4 TightSCF
%maxcore 5000
%tddft
    Mode sTDDFT
    Ethresh 5.0
    maxcore 5000
end

%pal
  nprocs 6
  end
* xyz 0 1
   C        9.80837         5.29112       -14.51532
   C        9.14458         6.05212       -15.43701
   F        9.34325         5.82824       -16.74920
   C        8.25370         7.06992       -15.07034
   C        8.03769         7.31288       -13.74234
   C        8.69570         6.55888       -12.74920
   C        9.60047         5.52992       -13.14319
   C       10.28105         4.76636       -12.16536
   C       10.05771         5.02682       -10.84175
   C        9.13314         6.03838       -10.45184
   C        8.47006         6.79528       -11.37416
   C        9.03168         6.06185        -8.98054
   O        8.38551         6.81394        -8.28669
   C        9.85347         4.90855        -8.51530
   C       10.62431         4.42866        -9.63596
   C       11.81533         3.75043        -9.58348
   C       12.45311         3.39411        -8.38164
   N       12.99322         3.09140        -7.41390
   C       12.58873         3.42478       -10.71733
   N       13.27433         3.14801       -11.59460
   C        9.69053         4.45556        -7.23685
   C       10.00233         3.18700        -6.71926
   S        9.97809         2.86279        -4.99495
   C       10.35503         1.17089        -5.15633
   C       10.47280         0.85742        -6.51901
   C       10.27599         1.98759        -7.35862
   O       10.34884         1.64665        -8.65547
   C       10.61159         0.30912        -8.66283
   N       10.74086        -0.31887        -9.91847
   O       10.95501        -1.51787        -9.90806
   O       10.62377         0.37339       -10.90905
   C       10.69977        -0.22474        -7.40239
   C       10.46669         0.37150        -4.00175
   C       10.75095        -0.95810        -4.01312
   C       10.82393        -1.83017        -2.88243
   C       11.03841        -3.17863        -3.10818
   C       11.05783        -4.08783        -2.03906
   C       11.20932        -5.46989        -2.01855
   C       11.44360        -6.35247        -3.19482
   C       12.74190        -7.17223        -3.04287
   N       13.26557        -7.47267        -4.35794
   C       10.22448        -7.25500        -3.46307
   N       10.39048        -7.97403        -4.71578
   C       11.10085        -5.87493        -0.63601
   C       11.11887        -7.08903        -0.05578
   C       10.96379        -7.25510         1.42016
   C       10.82757        -5.97956         2.18313
   C       10.78147        -4.77518         1.58651
   C       10.90264        -4.66604         0.17922
   C       10.87022        -3.59073        -0.68175
   C       10.68614        -2.20251        -0.47302
   C       10.65956        -1.36009        -1.53392
   C       12.08290        -8.14541         1.89071
   C       13.09471        -7.75290         2.67149
   C       14.14040        -8.64441         3.07138
   S       15.43255        -8.15496         4.13126
   C       16.23715        -9.70688         4.10665
   C       15.48790       -10.58512         3.31827
   C       14.33471        -9.97143         2.74926
   O       13.62333       -10.85924         2.02092
   C       14.29090       -12.03884         2.14794
   N       13.76050       -13.17110         1.48549
   O       14.34581       -14.22309         1.65606
   O       12.76751       -13.01329         0.80779
   C       15.41306       -11.94743         2.92439
   C       17.42485        -9.89878         4.85394
   C       18.38019       -10.84423         4.62076
   C       18.42812       -11.59085         3.42034
   C       19.04550       -12.75450         3.07224
   C       18.59463       -13.36147         1.78023
   O       17.96093       -12.79582         0.91666
   C       19.00533       -14.76909         1.83875
   C       18.72139       -15.78119         0.96699
   C       19.18237       -17.08438         1.25390
   C       19.92271       -17.31357         2.45056
   C       20.37258       -18.61716         2.73627
   C       20.09305       -19.63018         1.86137
   C       19.36731       -19.42471         0.67973
   C       18.92152       -18.16589         0.38749
   F       20.52322       -20.87493         2.13185
   C       20.19987       -16.24495         3.33520
   C       19.75530       -14.98637         3.03076
   C       19.90693       -13.71158         3.73440
   C       20.83124       -13.47723         4.71817
   C       21.14661       -12.21263         5.25054
   N       21.46624       -11.20716         5.70383
   C       21.66624       -14.47311         5.26971
   N       22.36852       -15.23197         5.76780
   H       10.48865         4.51644       -14.83279
   H        7.75834         7.63766       -15.84202
   H        7.35487         8.09098       -13.43537
   H       10.94799         3.98189       -12.48629
   H        7.77831         7.56290       -11.06066
   H        9.17520         5.13382        -6.56483
   H       10.89959        -1.25443        -7.19104
   H       10.29533         0.88919        -3.06927
   H       10.92102        -1.43050        -4.96982
   H       11.17623        -3.53675        -4.11842
   H       11.58862        -5.72264        -4.07799
   H       12.53991        -8.06952        -2.43598
   H       13.48496        -6.56788        -2.51120
   H       12.58735        -8.03763        -4.86095
   H       14.13577        -7.98783        -4.29172
   H        9.31789        -6.62482        -3.44051
   H       10.12971        -7.99692        -2.66602
   H       10.39277        -7.32253        -5.49453
   H        9.62298        -8.62191        -4.85654
   H       11.25371        -7.99790        -0.62319
   H       10.03469        -7.83252         1.57260
   H       10.73243        -6.07856         3.25384
   H       10.65423        -3.87526         2.17024
   H       10.56162        -1.82936         0.53277
   H       10.51590        -0.30417        -1.37105
   H       12.04938        -9.16188         1.52526
   H       13.15899        -6.73933         3.03949
   H       16.06630       -12.75970         3.16315
   H       17.56254        -9.22543         5.68959
   H       19.15252       -10.96796         5.36255
   H       17.82203       -11.19103         2.61171
   H       18.14724       -15.58871         0.07349
   H       20.93591       -18.81215         3.63544
   H       19.17633       -20.26306         0.02877
   H       18.35896       -17.98236        -0.51527
   H       20.74843       -16.45585         4.23913
*
