# ORCA input file
# SCF done       -227.384831575196          0.000452270980
! CAM-B3LYP def2-SVP def2/J RIJCOSX Grid4 TightSCF
%maxcore 5000
%tddft
    Mode sTDDFT
    Ethresh 5.0
    maxcore 5000
end

%pal
  nprocs 6
  end
* xyz 0 1
   C        1.44760        -2.12582         6.00987
   C        0.85342        -1.55155         7.09875
   F       -0.41560        -1.87410         7.40810
   C        1.51776        -0.62865         7.91853
   C        2.80734        -0.28730         7.62003
   C        3.46923        -0.84949         6.50886
   C        2.77743        -1.78894         5.68947
   C        3.42340        -2.37697         4.57768
   C        4.71940        -2.03740         4.29542
   C        5.39750        -1.08094         5.10511
   C        4.79927        -0.50050         6.18697
   C        6.74755        -0.85389         4.56362
   O        7.62480        -0.14997         5.00738
   C        6.80230        -1.64581         3.29863
   C        5.63090        -2.50478         3.25545
   C        5.47511        -3.65959         2.53983
   C        6.44397        -4.23183         1.69232
   N        7.19468        -4.78640         1.02347
   C        4.32995        -4.48183         2.61764
   N        3.42320        -5.18479         2.63491
   C        7.80750        -1.40477         2.42461
   C        7.95694        -1.83671         1.07188
   S        9.50783        -2.47855         0.60659
   C        8.92957        -2.91861        -0.96794
   C        7.61867        -2.49707        -1.13628
   C        7.07634        -1.87726         0.00827
   C        5.75473        -1.17143        -0.08836
   F        5.11075        -1.00391         1.11289
   C        4.82402        -1.89510        -1.06600
   F        4.57511        -3.17653        -0.64237
   C        5.51344        -1.95505        -2.43129
   F        5.83550        -0.67227        -2.79989
   C        6.77794        -2.81864        -2.33796
   F        7.47497        -2.68271        -3.51977
   C        9.73687        -3.64064        -1.88383
   C       11.02767        -3.98547        -1.65096
   C       11.85010        -4.73352        -2.52797
   N       11.42112        -5.23585        -3.73900
   C       12.44674        -5.91562        -4.31125
   C       12.81103        -6.66477        -5.42122
   C       14.14871        -7.03749        -5.21533
   N       14.58457        -6.52403        -4.00906
   C       13.56442        -5.83744        -3.43510
   C       13.18816        -5.09806        -2.32016
   C       15.00258        -7.81553        -6.02894
   C       14.64835        -8.36440        -7.22080
   C       15.51619        -9.14380        -8.01916
   S       17.14740        -9.48685        -7.53496
   C       17.47172       -10.37666        -8.99777
   C       16.34175       -10.39324        -9.81235
   C       15.24635        -9.72026        -9.26038
   C       13.93639        -9.59535        -9.98284
   F       12.85993        -9.73173        -9.13335
   C       13.80775       -10.64333       -11.09585
   F       13.69567       -11.90276       -10.56074
   C       15.06804       -10.60357       -11.96370
   F       15.26745        -9.30728       -12.36746
   C       16.25881       -11.10137       -11.13375
   F       17.40434       -10.94796       -11.87960
   C       18.73880       -10.94469        -9.24019
   C       19.77696       -10.88695        -8.35825
   C       21.04508       -11.41452        -8.65589
   C       22.19134       -11.33283        -7.91329
   C       23.31473       -12.25426        -8.22258
   O       23.43239       -12.94788        -9.20858
   C       24.21455       -12.18213        -7.05541
   C       25.34529       -12.90094        -6.79753
   C       26.04011       -12.68263        -5.58669
   C       25.53740       -11.72487        -4.65909
   C       26.22922       -11.51643        -3.45012
   C       27.36644       -12.23114        -3.19582
   C       27.87826       -13.17512        -4.09611
   C       27.21735       -13.39196        -5.27321
   F       28.03001       -12.03148        -2.04155
   C       24.36484       -10.99108        -4.95619
   C       23.71730       -11.20867        -6.14206
   C       22.53452       -10.57887        -6.73120
   C       22.00824        -9.37921        -6.32054
   C       21.06928        -8.60701        -7.03475
   N       20.34584        -7.89170        -7.56769
   C       22.42041        -8.69812        -5.15691
   N       22.68678        -8.10455        -4.21039
   H        0.90725        -2.83556         5.40319
   H        0.99761        -0.20907         8.76497
   H        3.33955         0.42167         8.23619
   H        2.87182        -3.07528         3.96901
   H        5.33507         0.21750         6.78966
   H        8.63170        -0.81969         2.82482
   H        5.91837        -0.15135        -0.47151
   H        3.85537        -1.38407        -1.12007
   H        4.84565        -2.34488        -3.20860
   H        6.46874        -3.87520        -2.28975
   H        9.25871        -3.91847        -2.81011
   H       11.49079        -3.68127        -0.72183
   H       10.50189        -5.10471        -4.12250
   H       12.21124        -6.92409        -6.26917
   H       15.51126        -6.65006        -3.63931
   H       13.77325        -4.84178        -1.46019
   H       16.00889        -7.97828        -5.66168
   H       13.64966        -8.21023        -7.59620
   H       13.83858        -8.59560       -10.43351
   H       12.89743       -10.46838       -11.68095
   H       14.96210       -11.20444       -12.87444
   H       16.14221       -12.18538       -10.97857
   H       18.89462       -11.41426       -10.20089
   H       19.61084       -10.42618        -7.39507
   H       21.13015       -12.01713        -9.55479
   H       25.70702       -13.62733        -7.50978
   H       25.86626       -10.79462        -2.73517
   H       28.78028       -13.70862        -3.84150
   H       27.59184       -14.11422        -5.98298
   H       24.00636       -10.27853        -4.23060
*
