# ORCA input file
# SCF done       -209.587239835888          0.001226615396
! CAM-B3LYP def2-SVP def2/J RIJCOSX Grid4 TightSCF
%maxcore 5000
%tddft
    Mode sTDDFT
    Ethresh 5.0
    maxcore 5000
end

%pal
  nprocs 6
  end
* xyz 0 1
   C       -5.20448       -10.24260         0.90109
   C       -5.56652       -10.77621        -0.32622
   C       -5.99805        -9.96060        -1.36486
   C       -6.07208        -8.58438        -1.21006
   C       -5.70897        -8.03755         0.00975
   C       -5.27927        -8.86804         1.07387
   C       -4.97848        -8.03728         2.22841
   C       -4.34732        -8.42007         3.37784
   C       -3.91600        -9.74288         3.63206
   N       -3.54335       -10.79587         3.89036
   C       -3.97377        -7.55677         4.43067
   N       -3.61302        -6.92363         5.31813
   C       -5.45446        -6.69046         1.89979
   C       -5.64656        -6.65287         0.44650
   C       -5.53908        -5.55389        -0.35105
   C       -5.19148        -4.27016         0.12723
   N       -4.83415        -3.23283         0.46246
   C       -5.64758        -5.59583        -1.75908
   N       -5.72305        -5.58574        -2.90300
   C       -5.80003        -5.75060         2.81094
   C       -6.54219        -4.55618         2.54859
   N       -7.44218        -4.46297         1.58800
   C       -7.93048        -3.20227         1.66432
   C       -7.29101        -2.44748         2.74764
   C       -7.81479        -1.06965         2.80039
   O       -7.52778        -0.18389         3.57023
   C       -8.77883        -1.05346         1.67990
   C       -8.82063        -2.38245         1.02065
   N       -9.70132        -2.37712        -0.01061
   C      -10.19036        -1.16395        -0.03622
   C       -9.65481        -0.28325         0.99261
   C       -6.40178        -3.31140         3.33929
   C       -5.47970        -3.15129         4.40282
   C       -5.22848        -1.96993         5.02178
   C       -4.29833        -1.83367         6.09263
   C       -3.88877        -0.54222         6.51022
   C       -2.87605        -0.35143         7.51216
   N       -2.60808         0.88601         7.94763
   C       -3.14336         1.91402         7.35005
   C       -4.03094         1.72624         6.23150
   N       -4.41478         0.52575         5.89348
   C       -4.54701         2.85115         5.53870
   N       -4.93025         3.78826         5.00400
   C       -2.90867         3.21934         7.85319
   N       -2.74710         4.28992         8.22524
   C       -2.18596        -1.44319         8.09923
   C       -2.63441        -2.72680         7.74162
   C       -3.67893        -2.91521         6.75579
   N       -3.91138        -4.21391         6.54338
   S       -2.93007        -5.09766         7.43892
   N       -2.15240        -3.90119         8.16307
   C       -1.03917        -1.13744         8.90277
   N       -0.30597        -0.08738         8.57119
   C        0.67592        -0.00603         9.48929
   C        0.53675        -1.05820        10.50721
   C        1.61956        -0.95353        11.50248
   O        1.79579        -1.61678        12.50400
   C        2.42410         0.16554        10.98954
   C        1.80481         0.72529         9.76508
   N        2.54176         1.75557         9.28695
   C        3.55597         1.86397        10.10934
   C        3.54681         0.89933        11.19438
   C       -0.55658        -1.80653        10.13559
   C       -1.15082        -2.92270        10.78009
   C       -0.66897        -3.42557        11.94534
   C       -1.23657        -4.55484        12.57948
   C       -0.68520        -5.21431        13.63895
   C       -1.40191        -6.12187        14.52811
   C       -2.54876        -6.81153        14.24137
   C       -3.19369        -6.80406        12.98646
   N       -3.75445        -6.84749        11.98540
   C       -3.20951        -7.66237        15.15295
   N       -3.79475        -8.36319        15.84818
   C       -0.65300        -6.15631        15.77589
   C        0.55787        -5.44454        15.60454
   C        1.44919        -5.30718        16.65543
   C        1.12832        -5.88464        17.87501
   C       -0.05412        -6.59235        18.04215
   C       -0.95512        -6.73691        16.99819
   C        0.63488        -4.99088        14.22369
   C        1.77190        -4.64817        13.54803
   C        3.03038        -4.48398        14.16669
   N        4.07176        -4.34083        14.62551
   C        1.86180        -4.56044        12.13967
   N        2.00610        -4.57089        11.00178
   H       -4.88065       -10.89059         1.69935
   H       -5.51572       -11.84416        -0.47275
   H       -6.28166       -10.40286        -2.30742
   H       -6.41668        -7.96036        -2.01881
   H       -5.55118        -5.92143         3.85057
   H      -10.92529        -0.88943        -0.77315
   H       -9.92607         0.74393         1.13478
   H       -4.93228        -4.02766         4.71899
   H       -5.71607        -1.05986         4.69620
   H        4.30483         2.62052         9.95088
   H        4.28683         0.82095        11.96594
   H       -1.97906        -3.40709        10.28551
   H        0.16305        -2.92951        12.42398
   H       -2.21371        -4.86303        12.23253
   H        2.36704        -4.75421        16.53839
   H        1.80950        -5.77980        18.70551
   H       -0.28077        -7.03459        19.00013
   H       -1.87190        -7.28392        17.14615
*
