# ORCA input file
# SCF done       -200.344097037977          0.000298823002
! CAM-B3LYP def2-SVP def2/J RIJCOSX Grid4 TightSCF
%maxcore 5000
%tddft
    Mode sTDDFT
    Ethresh 5.0
    maxcore 5000
end

%pal
  nprocs 6
  end
* xyz 0 1
   C        1.95544        -5.13016        -1.85846
   C        1.78478        -6.48422        -1.85891
   C        2.71129        -7.38563        -1.28955
   N        3.44142        -8.15092        -0.84689
   C        0.58579        -7.12862        -2.24923
   N       -0.40439        -7.70495        -2.33731
   C        2.94346        -4.40466        -1.06160
   C        2.47972        -3.09100        -0.84938
   C        3.13599        -2.21965        -0.00020
   C        4.29681        -2.65601         0.62077
   C        4.80923        -3.93251         0.34863
   C        4.13066        -4.81738        -0.48312
  Cl        6.27984        -4.42293         1.06832
  Cl        5.09803        -1.63257         1.73860
   C        1.26536        -2.85905        -1.64683
   O        0.62461        -1.83879        -1.75478
   C        1.03077        -4.14093        -2.38341
   C        0.16994        -4.14760        -3.43269
   C       -0.00809        -5.15970        -4.41579
   N        0.71309        -6.26901        -4.44497
   C        0.17142        -7.04797        -5.40400
   C       -0.99692        -6.39441        -6.01090
   C       -1.60827        -7.26119        -7.03481
   O       -2.57105        -7.03995        -7.73081
   C       -0.73967        -8.45766        -6.99269
   C        0.33870        -8.27563        -5.98914
   N        1.15639        -9.35689        -5.96457
   C        0.66855       -10.17576        -6.85977
   C       -0.51151        -9.67149        -7.54818
   C       -1.08679        -5.15827        -5.43728
   C       -2.00104        -4.09378        -5.72851
   C       -1.59133        -2.80834        -5.76590
   C       -2.36503        -1.62691        -5.95451
   S       -1.54270        -0.18821        -5.44456
   C       -2.96360         0.78132        -5.69328
   C       -4.03610        -0.01808        -6.11687
   C       -3.67115        -1.35247        -6.35743
   C       -4.56521        -2.30347        -7.10397
   C       -3.83256        -2.91430        -8.30405
   C       -5.80049        -1.55258        -7.61293
   C       -6.39938        -0.68065        -6.52149
   C       -5.44875         0.47054        -6.15933
   C       -5.84464         0.99954        -4.80307
   C       -6.53008         2.10836        -4.60728
   C       -2.92715         2.17480        -5.50262
   N       -3.98437         2.96161        -5.66900
   C       -3.59711         4.19288        -5.31555
   C       -2.18184         4.20854        -4.88539
   C       -1.75759         5.58178        -4.53317
   O       -0.66625         5.96100        -4.17848
   C       -2.99328         6.35299        -4.74728
   C       -4.08271         5.47546        -5.22504
   N       -5.21141         6.18933        -5.44289
   C       -4.89660         7.42859        -5.14140
   C       -3.52971         7.60218        -4.70635
   C       -1.72953         2.93784        -5.03735
   C       -0.43634         2.33713        -4.88565
   C        0.32226         2.30052        -3.76811
   C        1.43699         1.42369        -3.73123
   C        2.26940         1.20948        -2.67712
   C        3.31411         0.20877        -2.61714
   C        3.35197        -0.96329        -3.32552
   C        4.32014        -1.96690        -3.11781
   N        5.06214        -2.82964        -2.96487
   C        2.36379        -1.37702        -4.24091
   N        1.58790        -1.81085        -4.96877
   C        4.22414         0.59203        -1.54585
   C        3.65029         1.65618        -0.82589
   C        2.35896         2.04301        -1.44874
   O        1.57462         2.86765        -1.04826
   C        4.28931         2.21700         0.26058
   C        5.53935         1.72435         0.61904
   C        6.12989         0.68777        -0.11522
   C        5.47228         0.10692        -1.19371
  Cl        7.69027         0.11819         0.31367
  Cl        6.36514         2.39585         1.96417
   H        2.74307        -1.23303         0.19033
   H        4.54294        -5.79675        -0.66319
   H       -0.42348        -3.24831        -3.54429
   H        1.13300       -11.13082        -7.03389
   H       -1.05118       -10.18895        -8.31628
   H       -3.01404        -4.38661        -5.96172
   H       -0.54269        -2.60353        -5.58250
   H       -4.88885        -3.10569        -6.43038
   H       -3.49367        -2.12462        -8.97163
   H       -4.51303        -3.55979        -8.85355
   H       -2.97083        -3.50388        -8.01040
   H       -6.53684        -2.27545        -7.96646
   H       -5.51492        -0.92273        -8.45844
   H       -6.58149        -1.29026        -5.63283
   H       -7.35513        -0.26482        -6.84020
   H       -5.53095         1.28434        -6.88554
   H       -5.56926         0.36410        -3.97040
   H       -6.80349         2.75878        -5.41939
   H       -6.82902         2.42075        -3.62131
   H       -5.63105         8.21034        -5.22949
   H       -3.07769         8.53126        -4.42079
   H       -0.08323         1.79964        -5.76127
   H        0.04905         2.84603        -2.87801
   H        1.60810         0.84397        -4.63195
   H        3.83289         3.02371         0.81228
   H        5.95062        -0.69086        -1.73860
*
