# ORCA input file
# SCF done       -138.044023691772          0.000574323095
! CAM-B3LYP def2-SVP def2/J RIJCOSX Grid4 TightSCF
%maxcore 5000
%tddft
    Mode sTDDFT
    Ethresh 5.0
    maxcore 5000
end

%pal
  nprocs 6
  end
* xyz 0 1
   C       -6.75740        -0.37081        -3.42549
   N       -8.04845        -0.20769        -3.47153
   O       -8.56893        -0.69389        -2.33834
   C       -7.59778        -1.19566        -1.56954
   C       -7.89842        -1.79851        -0.26501
   O       -9.00036        -1.90116         0.19951
   C       -6.37461        -1.00172        -2.21060
   C       -5.07509        -1.40256        -1.75242
   N       -4.94935        -2.41157        -0.91740
   C       -3.61497        -2.58281        -0.74220
   C       -2.85071        -1.61565        -1.52955
   C       -1.41057        -1.81614        -1.32741
   O       -0.48214        -1.22013        -1.83599
   C       -1.36909        -2.93031        -0.35898
   C       -2.74276        -3.36956        -0.03248
   N       -2.72014        -4.37974         0.87229
   C       -1.45284        -4.58534         1.12450
   C       -0.55269        -3.70843         0.39342
   C       -3.77969        -0.81650        -2.16418
   C       -3.60240         0.34325        -2.95951
   C       -2.37679         0.75584        -3.37916
   C       -2.12176         1.90903        -4.15482
   N       -0.83639         2.19779        -4.56196
   C       -0.85797         3.33983        -5.29288
   C       -0.07402         4.22591        -6.01215
   C       -0.94867         5.22028        -6.49357
   N       -2.23366         4.93739        -6.07051
   C       -2.21065         3.79431        -5.34359
   C       -2.99779         2.89845        -4.63609
   C       -0.68279         6.35635        -7.27941
   C        0.52880         6.69854        -7.80729
   C        0.68044         7.86406        -8.58715
   N       -0.33572         8.70487        -8.79665
   C        0.14864         9.68352        -9.56997
   C        1.56904         9.46144        -9.89874
   C        2.08862        10.57262       -10.72034
   O        3.21353        10.73747       -11.13768
   C        0.90585        11.43423       -10.87736
   C       -0.25164        10.86102       -10.16282
   N       -1.33828        11.65589       -10.29418
   C       -0.93459        12.66677       -11.03121
   C        0.45296        12.59299       -11.42677
   C        1.92338         8.29726        -9.27209
   C        3.16991         7.59918        -9.24944
   C        4.18379         7.86444       -10.09650
   C        5.43366         7.16656       -10.06283
   C        6.41668         7.12427       -11.04936
   O        7.45314         6.38543       -10.60361
   N        7.18717         5.94322        -9.36394
   C        6.01119         6.38328        -9.02310
   C        6.47116         7.67561       -12.39358
   O        5.55789         8.23173       -12.94608
   H       -6.15131        -0.08057        -4.25928
   H       -6.98769        -2.16136         0.23956
   H       -1.15322        -5.35166         1.81789
   H        0.51691        -3.71489         0.46548
   H       -4.48046         0.91975        -3.20814
   H       -1.51234         0.16176        -3.11040
   H       -0.03468         1.63508        -4.33040
   H        0.98306         4.18851        -6.17764
   H       -3.03783         5.49940        -6.29296
   H       -4.05532         2.93634        -4.47202
   H       -1.50933         7.01985        -7.49844
   H        1.39195         6.07135        -7.64547
   H       -1.61954        13.45609       -11.28874
   H        0.97206        13.31523       -12.02510
   H        3.26976         6.80204        -8.52407
   H        4.08265         8.62289       -10.86060
   H        5.61402         6.15274        -8.05560
   H        7.45075         7.51610       -12.87995
*
