# ORCA input file
# SCF done       -172.192269066897          0.000747692538
! CAM-B3LYP def2-SVP def2/J RIJCOSX Grid4 TightSCF
%maxcore 5000
%tddft
    Mode sTDDFT
    Ethresh 5.0
    maxcore 5000
end

%pal
  nprocs 6
  end
* xyz 0 1
   C       -1.78746         0.18654        -1.61277
   C       -2.14508        -0.06339        -2.91184
   C       -1.32051        -0.73474        -3.83964
   N       -0.69537        -1.26910        -4.64034
   C       -3.38800         0.25403        -3.50050
   N       -4.37568         0.45781        -4.04998
   C       -0.55020        -0.25176        -0.98193
   C       -0.63697         0.01130         0.40712
   C        0.37276        -0.29955         1.28592
   C        1.52803        -0.89181         0.76835
   C        1.61003        -1.14415        -0.62261
   C        0.58635        -0.83486        -1.51032
   S        3.12896        -1.87248        -1.03966
   C        3.62904        -1.83612         0.61564
   C        2.70821        -1.30412         1.44866
   C       -1.92977         0.64668         0.71300
   O       -2.32521         0.94072         1.82221
   C       -2.59685         0.84811        -0.59752
   C       -3.68044         1.62724        -0.89067
   C       -4.57204         2.33176        -0.05375
   C       -4.76497         2.32890         1.31732
   C       -5.78035         3.19539         1.70044
   C       -6.38793         3.87885         0.63171
   S       -5.69903         3.42293        -0.87169
   C       -7.38155         4.76098         1.06547
   C       -7.53160         4.74154         2.46091
   S       -6.45137         3.62910         3.24860
   C       -8.49629         5.63137         2.92988
   C       -9.08060         6.33316         1.89620
   S       -8.45358         5.89205         0.32463
   C      -10.05865         7.35191         1.98744
   N      -10.53702         7.99730         0.96674
   C      -11.40547         8.92866         1.35700
   C      -11.63287         9.03490         2.74053
   S      -10.68656         7.87011         3.57676
   N      -12.48042         9.98278         3.13555
   C      -12.94165        10.64258         2.11258
   S      -12.33759        10.10586         0.52443
   C      -13.84178        11.73127         2.22942
   C      -14.34435        12.24420         3.40810
   C      -15.18402        13.33207         3.17475
   C      -15.32545        13.65124         1.81592
   S      -14.40916        12.58929         0.81503
   C      -16.16920        14.74567         1.61645
   C      -16.66475        15.26338         2.82158
   S      -16.09392        14.38932         4.21411
   C      -17.49223        16.37140         2.65343
   C      -17.67635        16.68727         1.32204
   S      -16.75513        15.62605         0.26170
   C      -18.42090        17.78632         0.82019
   C      -18.91989        17.97161        -0.42779
   C      -19.11754        17.05934        -1.53746
   C      -19.47002        15.73997        -1.43461
   C      -19.76693        14.91935        -2.54111
   N      -20.00484        14.21197        -3.41297
   C      -19.66990        15.09407        -0.19649
   N      -19.88795        14.55487         0.79302
   C      -19.18007        17.86450        -2.74914
   C      -19.29033        19.23110        -2.37940
   C      -19.23630        19.34758        -0.91030
   O      -19.36175        20.34041        -0.23193
   C      -19.41226        20.23387        -3.31155
   C      -19.41332        19.87399        -4.66277
   C      -19.28753        18.50871        -5.01863
   C      -19.17395        17.49151        -4.07837
   S      -19.30164        18.30381        -6.74097
   C      -19.47916        20.00937        -6.96697
   C      -19.52317        20.70760        -5.81151
   H        0.27248        -0.08912         2.33942
   H        0.69952        -1.04269        -2.56108
   H        4.59827        -2.22127         0.86646
   H        2.84457        -1.19944         2.50980
   H       -3.89260         1.77242        -1.94397
   H       -4.18075         1.73042         1.99110
   H       -8.75658         5.77067         3.96292
   H      -14.09808        11.83592         4.36955
   H      -17.96854        16.90478         3.45513
   H      -18.53673        18.62374         1.50162
   H      -19.50435        21.26494        -3.00738
   H      -19.07302        16.46470        -4.38986
   H      -19.53997        20.38932        -7.96823
   H      -19.62929        21.77589        -5.75722
*
