# ORCA input file
# SCF done       -258.939133384618          0.000545296113
! CAM-B3LYP def2-SVP def2/J RIJCOSX Grid4 TightSCF
%maxcore 5000
%tddft
    Mode sTDDFT
    Ethresh 5.0
    maxcore 5000
end

%pal
  nprocs 6
  end
* xyz 0 1
   C       -8.11068        -1.30803         4.96700
   C       -7.52164        -2.33404         4.27701
   C       -7.46644        -3.66496         4.74328
   N       -7.39186        -4.76360         5.06696
   C       -6.84115        -2.21626         3.04563
   N       -6.24940        -2.20840         2.06163
   C       -8.70769        -1.41669         6.29035
   C       -9.00021        -0.11248         6.75894
   C       -9.56672         0.12313         7.98866
   C       -9.86928        -0.98116         8.79017
   C       -9.58144        -2.28183         8.30985
   C       -9.00119        -2.51993         7.06976
   S      -10.04826        -3.49398         9.46059
   C      -10.61037        -2.27596        10.55221
   C      -10.46002        -1.01749        10.08459
   C       -8.61445         0.88044         5.74096
   O       -8.66105         2.08488         5.87934
   C       -8.17734         0.09114         4.56065
   C       -8.01171         0.50072         3.26994
   C       -8.07073         1.78883         2.68613
   C       -8.11554         3.04770         3.22904
   C       -8.17074         4.08114         2.27167
   C       -8.19094         5.47396         2.50695
   C       -8.23596         6.03989         3.83768
   C       -7.60073         7.16489         4.28847
   C       -7.90256         7.45451         5.63408
   C       -8.77377         6.57861         6.21866
   S       -9.23152         5.35328         5.09228
   C       -9.30983         6.58987         7.60299
  Cl       -7.22284         8.80195         6.46169
   C       -8.18408         6.28993         1.38021
   C       -8.16781         5.79077         0.05371
   C       -8.12911         4.40150        -0.18386
   C       -8.14230         3.58205         0.94080
   S       -8.06758         1.84794         0.92471
   C       -8.05635         3.83710        -1.51618
   C       -8.65939         2.70526        -1.98518
   C       -8.30931         2.41163        -3.32096
   C       -7.43424         3.29425        -3.88395
   S       -7.03296         4.53420        -2.74549
   C       -6.84553         3.28398        -5.24655
  Cl       -8.94413         1.04744        -4.15741
   C       -8.26142         6.83464        -0.89686
   C       -8.32714         8.08186        -0.34459
   S       -8.26113         8.02635         1.40002
   C       -8.46550         9.33463        -1.05257
   C       -8.92249         9.36618        -2.37346
   C       -9.07849        10.55498        -3.04839
   F       -9.52773        10.47887        -4.31651
   C       -8.79054        11.79926        -2.47042
   C       -8.31828        11.76500        -1.15511
   C       -8.17173        10.57701        -0.47707
   F       -7.71548        10.63441         0.78762
   C       -8.96280        13.05966        -3.15485
   C       -9.60226        13.32083        -4.32997
   C       -9.60001        14.69026        -4.69542
   C      -10.15380        15.27498        -5.85183
   C      -10.76298        14.49441        -6.90912
   C      -11.86699        14.80786        -7.65088
   C      -12.14740        13.84498        -8.64307
   C      -11.26675        12.80261        -8.68461
   S      -10.05951        12.99874        -7.46266
   C      -11.25105        11.63399        -9.59986
  Cl      -13.49479        13.98621        -9.70553
   C      -10.06474        16.66085        -5.94581
   C       -9.41498        17.46387        -4.97358
   C       -8.80457        16.87236        -3.84664
   C       -8.94667        15.49353        -3.72808
   S       -8.32146        14.52314        -2.42947
   C       -8.01357        17.63666        -2.90725
   C       -7.88199        17.46280        -1.55734
   C       -6.94988        18.35114        -0.98265
   C       -6.34770        19.19798        -1.87041
   S       -6.95083        18.90716        -3.46120
   C       -5.31981        20.23642        -1.60818
  Cl       -6.59521        18.36852         0.70070
   C       -9.45995        18.83259        -5.30895
   C      -10.06301        19.09221        -6.51200
   S      -10.66602        17.62756        -7.25874
   C      -10.30479        20.34419        -7.13548
   C       -9.68962        21.53440        -6.91392
   C       -8.49689        21.90663        -6.17788
   C       -7.36353        21.15055        -6.02856
   C       -6.22150        21.57668        -5.32382
   N       -5.28647        21.86545        -4.72264
   C       -7.19462        19.88197        -6.62147
   N       -6.99442        18.87409        -7.13206
   C       -8.61254        23.32457        -5.85943
   C       -9.69927        23.86828        -6.59328
   C      -10.36574        22.79205        -7.34864
   O      -11.29372        22.88392        -8.11774
   C      -10.02433        25.20267        -6.54483
   C       -9.25273        26.03450        -5.72770
   C       -8.18270        25.47788        -4.98553
   C       -7.84604        24.13056        -5.04056
   S       -7.37819        26.68845        -4.03828
   C       -8.45250        27.90521        -4.63578
   C       -9.37584        27.43464        -5.50216
   H       -9.77325         1.12972         8.31786
   H       -8.80668        -3.52910         6.74732
   H      -11.02640        -2.58290        11.49210
   H      -10.75310        -0.13560        10.62495
   H       -7.84880        -0.28280         2.53815
   H       -8.09599         3.21043         4.28952
   H       -6.91122         7.74715         3.70599
   H       -8.70694         7.24698         8.22534
   H       -9.29954         5.58551         8.02171
   H      -10.33919         6.95020         7.61356
   H       -9.35657         2.11381        -1.42181
   H       -5.78340         3.04152        -5.20285
   H       -6.94723         4.26039        -5.71750
   H       -7.34834         2.53771        -5.85659
   H       -8.27402         6.65998        -1.95562
   H       -9.17975         8.45274        -2.88365
   H       -8.06874        12.68403        -0.64794
   H      -10.08702        12.56669        -4.91860
   H      -12.48657        15.66837        -7.48041
   H      -12.19179        11.58017       -10.14236
   H      -11.10480        10.71155        -9.04071
   H      -10.43769        11.72288       -10.32066
   H       -8.45087        16.75831        -0.97984
   H       -4.38897        19.77051        -1.28345
   H       -5.65241        20.90350        -0.81322
   H       -5.12538        20.81682        -2.50709
   H       -9.11291        19.61114        -4.65500
   H      -11.13223        20.37594        -7.83753
   H      -10.84850        25.59270        -7.12160
   H       -7.02592        23.74872        -4.45512
   H       -8.32352        28.91406        -4.29489
   H      -10.12465        28.04462        -5.97401
*
