# ORCA input file
# SCF done       -230.713309789335          0.000582381522
! CAM-B3LYP def2-SVP def2/J RIJCOSX Grid4 TightSCF
%maxcore 5000
%tddft
    Mode sTDDFT
    Ethresh 5.0
    maxcore 5000
end

%pal
  nprocs 6
  end
* xyz 0 1
   C       -5.71083        -1.01376        -9.28298
   C       -6.24863        -1.21915       -10.52269
   F       -6.28999        -0.22005       -11.41247
   C       -6.76548        -2.48089       -10.88092
   F       -7.28632        -2.65332       -12.10252
   C       -6.73724        -3.52014        -9.99370
   C       -6.18926        -3.33966        -8.70885
   C       -5.66629        -2.06475        -8.34492
   C       -5.11113        -1.85919        -7.06071
   C       -5.07903        -2.89665        -6.16611
   C       -5.60351        -4.16523        -6.54081
   C       -6.14618        -4.39547        -7.77232
   C       -5.45169        -5.10020        -5.41604
   O       -5.79568        -6.26906        -5.39924
   C       -4.80621        -4.34486        -4.33491
   C       -4.58004        -2.98466        -4.79434
   C       -4.01490        -1.95203        -4.09542
   C       -3.53448        -2.01076        -2.76880
   N       -3.12215        -1.96727        -1.69846
   C       -3.83341        -0.65296        -4.61833
   N       -3.65996         0.42173        -4.98120
   C       -4.47684        -4.85517        -3.10759
   C       -4.67677        -6.14863        -2.59347
   C       -4.27481        -6.48833        -1.29407
   F       -3.67388        -5.60938        -0.49283
   C       -4.56085        -7.79656        -0.93559
   C       -5.19754        -8.48671        -1.98235
   S       -5.43127        -7.52137        -3.39034
   C       -5.49926        -9.80125        -1.61630
   C       -5.09227       -10.09878        -0.30906
   S       -4.32279        -8.76216         0.49774
   C       -5.41111       -11.41014         0.06089
   F       -5.03734       -11.93685         1.22575
   C       -6.05691       -12.11718        -0.94114
   S       -6.22848       -11.15624        -2.39136
   C       -6.57111       -13.45341        -0.93114
   C       -7.04952       -14.10484         0.22260
   C       -7.51456       -15.46210         0.17892
   N       -7.94863       -16.04851         1.31520
   C       -7.97895       -15.37003         2.41317
   C       -7.59169       -13.99817         2.43449
   N       -7.14751       -13.40966         1.37686
   F       -7.70927       -13.28339         3.54566
   F       -8.40102       -15.97989         3.51285
   C       -7.55906       -16.22083        -1.01023
   C       -7.19526       -15.52842        -2.18387
   C       -6.70563       -14.17050        -2.13554
   N       -6.44092       -13.69673        -3.35491
   S       -6.79596       -14.82107        -4.44097
   N       -7.29268       -15.96107        -3.44206
   C       -8.02333       -17.57295        -1.00042
   C       -7.84242       -18.56278        -1.95603
   F       -7.04105       -18.45517        -3.01523
   C       -8.53279       -19.74331        -1.66784
   C       -9.24855       -19.66241        -0.46686
   S       -9.00895       -18.14787         0.32645
   C       -9.95997       -20.83869        -0.21157
   C       -9.78346       -21.79038        -1.22699
   S       -8.72317       -21.26034        -2.49815
   C      -10.50201       -22.96056        -0.98545
   F      -10.55602       -23.97790        -1.85011
   C      -11.23176       -22.93614         0.19615
   S      -11.02938       -21.39718         1.01328
   C      -12.12162       -23.89078         0.74159
   C      -12.25686       -25.22279         0.49697
   C      -13.54680       -25.87470         0.87870
   O      -14.40740       -25.40532         1.58431
   C      -13.55326       -27.16631         0.16680
   C      -14.55626       -28.08774         0.07114
   C      -14.34855       -29.24945        -0.70547
   C      -13.10266       -29.43053        -1.37405
   C      -12.90649       -30.58689        -2.15551
   C      -13.89846       -31.52057        -2.26541
   C      -15.12933       -31.34139        -1.60210
   C      -15.35099       -30.23012        -0.83805
   F      -16.08381       -32.27250        -1.72864
   F      -13.71002       -32.61877        -3.00778
   C      -12.07951       -28.46268        -1.24948
   C      -12.29989       -27.34955        -0.48373
   C      -11.43601       -26.21619        -0.16010
   C      -10.06912       -26.21815        -0.25098
   C       -9.25979       -25.19400         0.27530
   N       -8.58965       -24.36353         0.69842
   C       -9.31963       -27.27021        -0.81735
   N       -8.66677       -28.09784        -1.27013
   H       -5.31999        -0.04176        -9.02544
   H       -7.13672        -4.47965       -10.28261
   H       -4.72498        -0.88226        -6.82018
   H       -6.53639        -5.36929        -8.02613
   H       -3.99244        -4.18898        -2.40221
   H      -12.86700       -23.48307         1.41920
   H      -15.49599       -27.93126         0.57848
   H      -11.96941       -30.74122        -2.66723
   H      -16.29852       -30.10738        -0.33721
   H      -11.15034       -28.61927        -1.77367
*
