# ORCA input file
# SCF done       -293.530003670106          0.000270317486
! CAM-B3LYP def2-SVP def2/J RIJCOSX Grid4 TightSCF
%maxcore 5000
%tddft
    Mode sTDDFT
    Ethresh 5.0
    maxcore 5000
end

%pal
  nprocs 6
  end
* xyz 0 1
   C      -13.25888        -1.89336        10.48739
   C      -12.54884        -0.73601        10.64209
   F      -13.14560         0.36064        11.12647
   C      -11.18394        -0.67958        10.29448
   F      -10.51289         0.46864        10.45630
   C      -10.54835        -1.78166         9.79546
   C      -11.25349        -2.98846         9.62143
   C      -12.63304        -3.04787         9.97523
   C      -13.36069        -4.24854         9.81084
   C      -12.72862        -5.35170         9.30015
   C      -11.35622        -5.27948         8.93632
   C      -10.62435        -4.13803         9.09476
   C      -10.91898        -6.57616         8.38086
   O       -9.78676        -6.85632         8.05128
   C      -12.14710        -7.40732         8.30755
   C      -13.20635        -6.69915         9.01345
   C      -14.40215        -7.22293         9.42344
   C      -14.79889        -8.56795         9.25531
   N      -15.17701        -9.64924         9.18247
   C      -15.37670        -6.48833        10.13237
   N      -16.20407        -5.93732        10.70570
   C      -12.36633        -8.52727         7.55830
   C      -11.46709        -9.31125         6.79760
   C      -10.09738        -9.40019         6.80563
   C       -9.58276       -10.31225         5.86372
   C       -8.22291       -10.62440         5.63013
   C       -7.18556       -10.10150         6.49035
   C       -7.22123        -9.95163         7.84893
   C       -6.03360        -9.39476         8.36605
   C       -5.08653        -9.11007         7.42393
   S       -5.66042        -9.54959         5.85251
   C       -3.74423        -8.50520         7.61059
  Cl       -5.81077        -9.10516        10.04780
   C       -7.96215       -11.44632         4.54208
   C       -8.98082       -12.01473         3.73454
   C      -10.34184       -11.78014         4.02268
   C      -10.60398       -10.90895         5.07664
   S      -12.17640       -10.40319         5.61050
   C      -11.40946       -12.39914         3.26633
   C      -12.60753       -11.85318         2.89852
   C      -13.42305       -12.75646         2.18581
   C      -12.87832       -13.99699         2.01356
   S      -11.31198       -14.05948         2.73979
   C      -13.43983       -15.17053         1.30088
  Cl      -14.97646       -12.31714         1.59074
   C       -8.44628       -12.76006         2.65892
   C       -7.08112       -12.79962         2.64451
   S       -6.38053       -11.92139         3.98986
   C       -6.23229       -13.41683         1.67824
   C       -6.56603       -13.84262         0.40011
   C       -7.84690       -13.68822        -0.15323
   N       -8.89150       -13.53925        -0.60296
   C       -5.44998       -14.38202        -0.29865
   C       -4.30036       -14.34759         0.48218
   S       -4.54489       -13.67567         2.04678
   S       -2.86630       -14.94332        -0.29022
   C       -3.81992       -15.23406        -1.70941
   C       -5.16694       -14.90934        -1.59278
   C       -5.86515       -15.16965        -2.80440
   C       -7.25546       -15.07522        -2.97695
   N       -8.39141       -15.05769        -3.13465
   C       -5.02772       -15.64579        -3.80339
   S       -3.37942       -15.83406        -3.26107
   C       -5.38245       -15.92680        -5.15643
   C       -6.45869       -15.43485        -5.83952
   C       -6.53078       -15.87900        -7.17870
   C       -7.49460       -15.52632        -8.14867
   C       -8.67700       -14.77473        -7.79486
   C       -9.40393       -14.84101        -6.63688
   C      -10.53448       -13.99789        -6.65262
   C      -10.68832       -13.28052        -7.80528
   S       -9.41286       -13.65442        -8.91210
   C      -11.76472       -12.32527        -8.16562
  Cl      -11.61703       -13.88888        -5.32365
   C       -7.25678       -15.99003        -9.43804
   C       -6.17604       -16.84412        -9.77786
   C       -5.23019       -17.21732        -8.79761
   C       -5.44008       -16.71725        -7.51798
   S       -4.38528       -16.96436        -6.15339
   C       -4.09279       -18.04957        -9.12650
   C       -3.29400       -17.98506       -10.23316
   C       -2.26824       -18.95408       -10.22058
   C       -2.27249       -19.76579        -9.12254
   S       -3.56544       -19.32334        -8.06093
   C       -1.35939       -20.88819        -8.79253
  Cl       -1.11446       -19.08571       -11.49274
   C       -6.23635       -17.25352       -11.12793
   C       -7.30309       -16.73848       -11.81960
   S       -8.26481       -15.67036       -10.81431
   C       -7.56162       -16.91779       -13.20415
   C       -8.67457       -16.58565       -13.90777
   C       -8.58437       -16.36750       -15.37931
   O       -7.70092       -16.73472       -16.11662
   C       -9.76521       -15.54203       -15.71200
   C      -10.08887       -14.94716       -16.89747
   C      -11.26235       -14.16387       -16.97542
   C      -12.07896       -14.00742       -15.81740
   C      -13.24177       -13.21523       -15.90100
   C      -13.58032       -12.61035       -17.07861
   C      -12.77404       -12.76833       -18.22392
   C      -11.63942       -13.52855       -18.17483
   F      -13.13014       -12.16313       -19.36493
   F      -14.68569       -11.85797       -17.15572
   C      -11.72531       -14.64410       -14.60607
   C      -10.58828       -15.40470       -14.55684
   C      -10.00519       -16.19884       -13.48101
   C      -10.68358       -16.71283       -12.40953
   C      -10.15870       -17.74283       -11.59792
   N       -9.78460       -18.62759       -10.97041
   C      -11.99406       -16.33211       -12.05967
   N      -13.04816       -16.02423       -11.72615
   H      -14.30231        -1.91977        10.76016
   H       -9.50362        -1.72224         9.53325
   H      -14.40384        -4.26176        10.08254
   H       -9.58199        -4.11170         8.81556
   H      -13.39666        -8.85421         7.46995
   H       -9.48225        -8.79839         7.44647
   H       -8.04017       -10.26538         8.46901
   H       -3.72936        -7.48285         7.23190
   H       -2.98874        -9.07383         7.07138
   H       -3.49372        -8.48786         8.66844
   H      -12.89200       -10.83430         3.08335
   H      -13.32450       -16.07486         1.89585
   H      -12.91925       -15.32153         0.35459
   H      -14.49496       -15.00676         1.09622
   H       -9.04927       -13.23882         1.91268
   H       -7.14497       -14.72773        -5.41604
   H       -9.18315       -15.49279        -5.81185
   H      -12.49696       -12.80718        -8.81481
   H      -11.35685       -11.46679        -8.69531
   H      -12.27124       -11.98875        -7.26434
   H       -3.39515       -17.24732       -11.00751
   H       -0.58125       -20.96263        -9.54795
   H       -1.90696       -21.82973        -8.75678
   H       -0.89718       -20.73276        -7.81866
   H       -5.54510       -17.94741       -11.57014
   H       -6.72282       -17.27284       -13.79486
   H       -9.45804       -15.07083       -17.76453
   H      -13.87198       -13.08726       -15.03484
   H      -11.03298       -13.63900       -19.06012
   H      -12.35466       -14.50704       -13.74104
*
