# ORCA input file
# SCF done       -287.687079210729          0.000314897189
! CAM-B3LYP def2-SVP def2/J RIJCOSX Grid4 TightSCF
%maxcore 5000
%tddft
    Mode sTDDFT
    Ethresh 5.0
    maxcore 5000
end

%pal
  nprocs 6
  end
* xyz 0 1
   C      -13.29318         1.68158         0.51589
   C      -14.62988         1.96160         0.47468
   F      -15.05162         3.23318         0.45344
   C      -15.58039         0.92110         0.45369
   F      -16.88505         1.22550         0.41326
   C      -15.18069        -0.38557         0.47311
   C      -13.80992        -0.70697         0.51381
   C      -12.84784         0.34423         0.53778
   C      -11.46716         0.04670         0.58390
   C      -11.06168        -1.26241         0.60277
   C      -12.02728        -2.30380         0.56519
   C      -13.36768        -2.04831         0.52585
   C      -11.34751        -3.61654         0.56722
   O      -11.90672        -4.69150         0.56773
   C       -9.89421        -3.31380         0.52789
   C       -9.73716        -1.86941         0.65562
   C       -8.56983        -1.18844         0.87934
   C       -7.29308        -1.76632         1.05165
   N       -6.22428        -2.14717         1.23044
   C       -8.49184         0.21410         1.01610
   N       -8.36131         1.34891         1.12926
   C       -8.84689        -4.14115         0.24307
   C       -8.72313        -5.56147         0.11911
   C       -7.55062        -6.04468        -0.49516
   C       -7.31437        -7.38933        -0.62615
   C       -8.22861        -8.32524        -0.12712
   C       -9.39841        -7.85236         0.47475
   C       -9.64162        -6.50416         0.60554
   C       -7.99001        -9.76295        -0.26673
   C       -9.16141       -10.56766        -0.65106
   C       -9.44735       -11.77039        -0.00722
   C      -10.55842       -12.50884        -0.36612
   C      -11.40149       -12.05919        -1.36943
   C      -11.13288       -10.85910        -2.00639
   C      -10.02548       -10.11453        -1.64661
   C       -6.77111       -10.31734        -0.04340
   C       -5.67400        -9.55992         0.57929
   C       -5.89886        -8.76861         1.70500
   C       -4.86109        -8.06495         2.28510
   C       -3.58389        -8.14172         1.75381
   C       -3.34674        -8.93861         0.64582
   C       -4.38068        -9.64931         0.06627
   C       -6.45582       -11.70593        -0.39526
   C       -6.84596       -12.24645        -1.62172
   C       -6.49269       -13.53064        -1.97088
   C       -5.74002       -14.32577        -1.10297
   C       -5.36232       -13.79076         0.13089
   C       -5.70174       -12.49976         0.47078
   C       -5.34330       -15.68024        -1.47071
   C       -4.94613       -16.02407        -2.77223
   C       -4.55160       -17.36470        -3.12815
   N       -4.24263       -17.64143        -4.42040
   C       -4.24675       -16.69105        -5.28843
   C       -4.54584       -15.34908        -4.91664
   N       -4.88954       -15.04762        -3.71354
   F       -4.48054       -14.36339        -5.81226
   F       -3.95973       -17.00003        -6.55344
   C       -4.51506       -18.40961        -2.19137
   C       -4.91961       -18.07140        -0.88902
   C       -5.31527       -16.72521        -0.53158
   N       -5.65170       -16.64081         0.76179
   S       -5.47372       -18.07656         1.44435
   N       -4.97060       -18.89437         0.16566
   C       -4.09041       -19.75964        -2.53972
   C       -3.03780       -19.97271        -3.43293
   C       -2.65560       -21.25047        -3.77469
   C       -3.29750       -22.36222        -3.22638
   C       -4.34387       -22.14976        -2.32689
   C       -4.73018       -20.87254        -1.98666
   C       -2.90427       -23.71216        -3.64432
   C       -2.65482       -23.86908        -5.08683
   C       -3.52930       -23.30052        -6.01194
   C       -3.30121       -23.43615        -7.36810
   C       -2.18993       -24.12756        -7.82168
   C       -1.30381       -24.67825        -6.91024
   C       -1.53197       -24.55051        -5.55348
   C       -2.76509       -24.74496        -2.77726
   C       -2.79411       -24.57935        -1.31581
   C       -3.45679       -25.51976        -0.52619
   C       -3.48020       -25.38548         0.84922
   C       -2.83636       -24.32046         1.45739
   C       -2.15916       -23.39293         0.68214
   C       -2.13399       -23.52084        -0.69321
   C       -2.57369       -26.12485        -3.23497
   C       -1.62142       -26.94073        -2.61783
   C       -1.48561       -28.25974        -2.97871
   C       -2.30051       -28.81504        -3.97400
   C       -3.21796       -27.98242        -4.62607
   C       -3.36553       -26.66851        -4.24895
   C       -2.19298       -30.19522        -4.35905
   C       -1.83448       -31.25806        -3.59822
   C       -1.40718       -32.52252        -4.26017
   O       -1.55097       -32.81547        -5.42391
   C       -0.72319       -33.29936        -3.20630
   C       -0.03157       -34.47084        -3.31853
   C        0.58016       -35.01989        -2.16965
   C        0.46531       -34.33808        -0.92325
   C        1.08599       -34.88674         0.21721
   C        1.78513       -36.05713         0.12497
   C        1.89708       -36.73097        -1.10800
   C        1.30724       -36.22470        -2.23195
   F        2.59073       -37.87564        -1.16895
   F        2.37422       -36.57682         1.20995
   C       -0.26359       -33.13022        -0.83623
   C       -0.85549       -32.62048        -1.96135
   C       -1.67382       -31.42728        -2.16574
   C       -2.34891       -30.75857        -1.18019
   C       -3.31852       -29.75856        -1.40466
   N       -4.15832       -28.98222        -1.50209
   C       -2.21290       -31.04878         0.19346
   N       -2.12376       -31.23584         1.32241
   H      -12.57856         2.48962         0.53362
   H      -15.92073        -1.17030         0.45607
   H      -10.76476         0.86412         0.59577
   H      -14.07971        -2.85929         0.50216
   H       -7.91023        -3.63195         0.04052
   H       -6.82973        -5.33865        -0.88196
   H       -6.42033        -7.73332        -1.12378
   H      -10.11299        -8.56323         0.86403
   H      -10.54305        -6.17391         1.09171
   H       -8.80056       -12.11719         0.78521
   H      -10.77019       -13.43800         0.14220
   H      -12.26803       -12.63929        -1.64978
   H      -11.78968       -10.50081        -2.78533
   H       -9.81520        -9.18031        -2.14800
   H       -6.89038        -8.71957         2.13124
   H       -5.04851        -7.45516         3.15641
   H       -2.77559        -7.58639         2.20522
   H       -2.35159        -9.00635         0.23145
   H       -4.19638       -10.26579        -0.80215
   H       -7.41644       -11.64246        -2.31122
   H       -6.80903       -13.93088        -2.92004
   H       -4.77937       -14.38949         0.81250
   H       -5.38983       -12.09519         1.42312
   H       -2.51121       -19.12858        -3.84720
   H       -1.83669       -21.39946        -4.46382
   H       -4.86748       -22.99789        -1.91170
   H       -5.55154       -20.72535        -1.30366
   H       -4.39763       -22.76256        -5.65929
   H       -3.99105       -22.99808        -8.07415
   H       -2.01072       -24.23042        -8.88146
   H       -0.42784       -25.20555        -7.25868
   H       -0.82888       -24.96528        -4.84580
   H       -3.96139       -26.35294        -0.99441
   H       -4.00136       -26.11801         1.44756
   H       -2.85512       -24.21754         2.53223
   H       -1.64330       -22.56846         1.15205
   H       -1.58800       -22.80645        -1.29171
   H       -0.98525       -26.52270        -1.85096
   H       -0.72275       -28.86838        -2.51401
   H       -3.84831       -28.39747        -5.39835
   H       -4.11159       -26.05199        -4.72664
   H       -2.37001       -30.41860        -5.40696
   H        0.04977       -34.97069        -4.27170
   H        1.00711       -34.38585         1.16942
   H        1.40219       -36.75203        -3.16822
   H       -0.32641       -32.63076         0.11744
*
