# ORCA input file
# SCF done       -244.436721709474          0.000713884655
! CAM-B3LYP def2-SVP def2/J RIJCOSX Grid4 TightSCF
%maxcore 5000
%tddft
    Mode sTDDFT
    Ethresh 5.0
    maxcore 5000
end

%pal
  nprocs 6
  end
* xyz 0 1
   C        4.02446         2.05796        -0.38096
   C        4.53178         1.71664         0.84673
   C        5.22244         0.51449         1.10869
   N        5.79097        -0.44156         1.39414
   C        4.45599         2.48957         2.02400
   N        4.44229         3.04614         3.02933
   C        4.12142         1.23950        -1.58552
   C        3.50259         1.93838        -2.66067
   C        3.43479         1.41859        -3.92067
   C        3.99055         0.14386        -4.16941
   C        4.60921        -0.56526        -3.09992
   C        4.66759         0.00254        -1.80613
   C        5.15621        -1.83875        -3.35751
   C        5.09518        -2.38691        -4.60986
   C        4.48623        -1.68718        -5.66220
   C        3.94619        -0.44826        -5.44670
   C        2.98592         3.22520        -2.17011
   O        2.41046         4.06835        -2.83121
   C        3.30635         3.27215        -0.73113
   C        2.96451         4.27006         0.13763
   C        2.24772         5.46642        -0.07241
   C        1.96258         6.32678         0.97264
   C        1.21410         7.45401         0.60464
   C        0.75947         8.50959         1.43466
   C        1.11787         8.60718         2.83175
   C        0.34657         9.03751         3.87730
   C        1.02745         9.04529         5.10896
   C        2.32440         8.64033         5.01720
   S        2.72797         8.22320         3.38613
   C        3.33863         8.52302         6.09604
   C       -0.04872         9.45772         0.82205
   C       -0.36780         9.43693        -0.56287
   C        0.14521         8.42486        -1.40050
   C        0.90081         7.43157        -0.78103
   S        1.58283         6.04630        -1.58279
   C       -0.06704         8.42136        -2.83185
   C       -0.26262         7.35242        -3.66251
   C       -0.37139         7.71135        -5.01954
   C       -0.24264         9.04806        -5.24192
   S        0.00196         9.90174        -3.75494
   C       -0.29322         9.78418        -6.53179
   C       -1.23353        10.49485        -0.91662
   C       -1.54464        11.31935         0.12964
   S       -0.77704        10.83106         1.61797
   C       -2.43219        12.42507         0.06945
   N       -3.10191        12.73495        -1.00190
   C       -3.88699        13.78728        -0.78014
   C       -3.84311        14.34732         0.50847
   S       -2.73201        13.46779         1.48138
   N       -4.64511        15.38808         0.73362
   C       -5.33637        15.67448        -0.33017
   S       -5.01899        14.64283        -1.74661
   C       -6.30514        16.71049        -0.39050
   C       -6.61460        17.59806         0.60359
   C       -7.65495        18.48905         0.25505
   C       -8.24410        19.48798         1.05993
   C       -7.69693        19.82025         2.35721
   C       -6.37991        19.92941         2.71063
   C       -6.19312        20.28705         4.05950
   C       -7.35872        20.44485         4.74493
   S       -8.72705        20.16460         3.71969
   C       -7.55208        20.81478         6.17069
   C       -9.35569        20.13250         0.52797
   C       -9.87461        19.85628        -0.76681
   C       -9.26170        18.87983        -1.58659
   C       -8.15762        18.23154        -1.04657
   S       -7.27931        16.93855        -1.82066
   C       -9.76246        18.53332        -2.89785
   C       -9.03868        18.21786        -4.01680
   C       -9.84173        17.87367        -5.11901
   C      -11.17674        17.90283        -4.84723
   S      -11.46963        18.37915        -3.21111
   C      -12.31277        17.59331        -5.75356
   C      -10.96884        20.68112        -1.08877
   C      -11.32103        21.55291        -0.08723
   S      -10.25790        21.39236         1.30924
   C      -12.34192        22.52464         0.01792
   C      -13.39397        22.82802        -0.79931
   C      -14.37452        23.85820        -0.48093
   C      -14.24701        24.86260         0.44254
   C      -15.23607        25.84045         0.68123
   N      -15.99714        26.66392         0.92771
   C      -13.11880        25.11259         1.25311
   N      -12.24428        25.40912         1.93652
   C      -15.51202        23.68639        -1.37630
   C      -15.19359        22.66426        -2.31258
   C      -13.84486        22.13995        -2.03538
   O      -13.25812        21.31912        -2.71013
   C      -16.06607        22.27984        -3.28922
   C      -17.32902        22.90741        -3.36952
   C      -17.66020        23.92607        -2.43021
   C      -16.73194        24.30707        -1.43412
   C      -18.92575        24.54147        -2.51515
   C      -19.82144        24.17081        -3.48085
   C      -19.49366        23.16834        -4.40587
   C      -18.27388        22.55045        -4.35145
   H        2.96009         1.97261        -4.71691
   H        5.14301        -0.56213        -1.02026
   H        5.62439        -2.37379        -2.54432
   H        5.51603        -3.36354        -4.79656
   H        4.44686        -2.13475        -6.64408
   H        3.47574         0.09578        -6.25273
   H        3.26722         4.14427         1.17032
   H        2.27857         6.11504         1.97818
   H       -0.69060         9.30062         3.77703
   H        0.56847         9.34289         6.03492
   H        2.90452         8.81886         7.04799
   H        4.19822         9.15973         5.88761
   H        3.69773         7.49718         6.17548
   H       -0.35943         6.34076        -3.31407
   H       -0.53614         6.99713        -5.80652
   H       -0.46318         9.08864        -7.35006
   H        0.64236        10.31433        -6.70915
   H       -1.09572        10.52143        -6.52291
   H       -1.64581        10.65333        -1.89485
   H       -6.12622        17.57347         1.55922
   H       -5.57120        19.80123         2.01363
   H       -5.22410        20.42408         4.50574
   H       -6.58956        20.87802         6.67261
   H       -8.16934        20.07565         6.68016
   H       -8.05416        21.77900         6.25072
   H       -7.96600        18.27244        -4.06172
   H       -9.44222        17.61197        -6.08269
   H      -11.94482        17.38117        -6.75456
   H      -13.00310        18.43477        -5.79988
   H      -12.86774        16.72717        -5.39267
   H      -11.48794        20.65551        -2.02816
   H      -12.27987        23.09195         0.93988
   H      -15.79688        21.50263        -3.98912
   H      -17.01605        25.07782        -0.73566
   H      -19.17324        25.31374        -1.80166
   H      -20.78820        24.64829        -3.53739
   H      -20.21255        22.88810        -5.16131
   H      -18.01570        21.77749        -5.06068
*
