# ORCA input file
# SCF done       -188.642842948589          0.000468742583
! CAM-B3LYP def2-SVP def2/J RIJCOSX Grid4 TightSCF
%maxcore 5000
%tddft
    Mode sTDDFT
    Ethresh 5.0
    maxcore 5000
end

%pal
  nprocs 6
  end
* xyz 0 1
   C        3.63039         1.22977         8.53829
   C        4.36781         0.48313         7.64728
   C        4.55806        -0.90851         7.75166
   N        4.75402        -2.04062         7.77420
   C        5.02128         0.97652         6.50108
   N        5.57189         1.29190         5.54260
   C        2.92531         0.69143         9.70048
   C        2.24007         1.75888        10.34694
   C        1.48086         1.56004        11.46244
   C        1.37134         0.25644        11.99829
   C        2.05845        -0.81603        11.36203
   C        2.83647        -0.57787        10.20428
   C        1.94591        -2.11117        11.90579
   C        1.19007        -2.33859        13.02382
   C        0.51224        -1.28182        13.64853
   C        0.60124        -0.01162        13.14635
   C        2.50040         3.01498         9.61950
   O        2.06367         4.11538         9.90089
   C        3.38866         2.64905         8.49516
   C        3.88939         3.54448         7.57037
   C        3.61315         4.90743         7.55710
   C        4.09184         5.76991         6.58785
   C        3.81335         7.14973         6.48387
   C        4.37225         7.74991         5.39137
   C        5.12525         6.87043         4.58869
   S        5.11774         5.26067         5.26489
   C        5.77309         7.15932         3.39383
   C        5.75880         8.37202         2.67700
   C        6.42998         8.31329         1.49016
   C        7.02670         7.06014         1.21516
   S        6.70479         5.95880         2.53955
   C        7.69068         6.76074         0.04448
   C        8.35954         5.58691        -0.34109
   C        8.67819         4.49925         0.48647
   C        9.38173         3.40540         0.03184
   F        9.58244         2.41425         0.92064
   C        9.82527         3.22014        -1.29149
   C        9.44904         4.28095        -2.17277
   C        8.77166         5.45526        -1.70440
   N        8.56284         6.33197        -2.67894
   S        9.15874         5.73886        -4.05469
   N        9.71335         4.34084        -3.47283
   C       10.53336         2.12491        -1.82209
   C       11.36343         1.21040        -1.20951
   C       11.95027         0.10746        -1.87873
   C       12.83573        -0.60130        -1.12277
   C       13.01932        -0.06900         0.17104
   S       11.99123         1.31061         0.42116
   C       13.90839        -0.50762         1.14588
   C       14.75736        -1.63040         1.09321
   C       15.54644        -1.77168         2.19957
   C       15.36666        -0.75929         3.16645
   S       14.13325         0.36472         2.64107
   C       16.06852        -0.62501         4.35107
   C       15.89091         0.43806         5.22928
   C       16.60153         0.61684         6.40071
   C       16.48357         1.71896         7.31973
   C       15.69292         2.83769         7.18139
   C       15.63428         3.88393         8.12230
   N       15.53385         4.77135         8.84559
   C       14.85293         3.12403         6.08767
   N       14.15306         3.44497         5.23404
   C       17.39071         1.46760         8.43857
   C       18.07690         0.24394         8.19663
   C       17.61678        -0.32643         6.91674
   O       18.00521        -1.36103         6.40740
   C       19.00269        -0.25013         9.06785
   C       19.29175         0.47113        10.24886
   C       18.60814         1.69437        10.50038
   C       17.65276         2.18083         9.57659
   C       18.90346         2.40619        11.68006
   C       19.82999         1.93435        12.57007
   C       20.50257         0.72936        12.32135
   C       20.23881         0.01326        11.18506
   H        0.96887         2.38709        11.93185
   H        3.34317        -1.41269         9.74713
   H        2.46935        -2.92213        11.42063
   H        1.11051        -3.33491        13.43264
   H       -0.08057        -1.47852        14.52948
   H        0.08154         0.80678        13.62325
   H        4.53916         3.17002         6.78882
   H        2.97642         5.31873         8.32744
   H        3.20289         7.65360         7.21180
   H        4.26132         8.79194         5.15131
   H        5.24389         9.24390         3.03736
   H        6.51447         9.13434         0.80053
   H        7.67585         7.53575        -0.71213
   H        8.39077         4.49897         1.52517
   H       10.46028         2.03888        -2.90013
   H       11.69242        -0.12987        -2.89570
   H       13.36857        -1.46849        -1.46817
   H       14.76514        -2.30432         0.25564
   H       16.25767        -2.56499         2.34521
   H       16.80680        -1.37835         4.58664
   H       15.14549         1.17635         4.95977
   H       19.51008        -1.18050         8.85955
   H       17.15264         3.10994         9.79858
   H       18.38295         3.33412        11.86707
   H       20.04941         2.48786        13.47095
   H       21.23062         0.37096        13.03395
   H       20.75380        -0.91577        10.98785
*
