# ORCA input file
# SCF done       -270.789840979574          0.000826157331
! CAM-B3LYP def2-SVP def2/J RIJCOSX Grid4 TightSCF
%maxcore 5000
%tddft
    Mode sTDDFT
    Ethresh 5.0
    maxcore 5000
end

%pal
  nprocs 6
  end
* xyz 0 1
   C       -0.58728         4.00565         7.28644
   C       -1.88600         4.42500         7.17638
   C       -2.99688         3.63525         7.53856
   N       -3.93744         3.03022         7.79891
   C       -2.28461         5.71756         6.77772
   N       -2.69288         6.76235         6.53272
   C       -0.15349         2.77949         7.94755
   C        1.22376         2.91076         8.29271
   C        1.89251         1.92807         8.96395
   C        1.20613         0.74503         9.31825
   C       -0.16580         0.60015         8.96138
   C       -0.83473         1.63644         8.27092
   C       -0.83759        -0.58767         9.31561
   C       -0.18857        -1.58389         9.99236
   C        1.16203        -1.44000        10.34400
   C        1.84420        -0.30050        10.01443
   C        1.72833         4.20508         7.80110
   O        2.82796         4.68550         7.95329
   C        0.60475         4.78955         7.01239
   C        0.84459         5.80927         6.15631
   C       -0.00056         6.29385         5.09556
   C       -0.01284         7.65783         4.78662
   C       -0.87222         8.15332         3.83383
   C       -1.71628         7.29952         3.12053
   C       -1.64995         5.92717         3.37656
   C       -0.81236         5.43237         4.34813
   C       -2.71826         7.83204         2.19211
   C       -4.05113         7.21976         2.30878
   C       -4.79586         6.89638         1.17522
   C       -6.03511         6.29867         1.30001
   C       -6.54813         6.00991         2.55447
   C       -5.81008         6.31588         3.68595
   C       -4.56896         6.91253         3.56736
   C       -2.44190         8.82745         1.31309
   C       -1.06217         9.25923         1.03891
   C       -0.04626         8.32616         0.83733
   C        1.24376         8.74149         0.56842
   C        1.54088        10.09263         0.49532
   C        0.53624        11.02787         0.68185
   C       -0.75656        10.61635         0.94435
   C       -3.48691         9.55362         0.58342
   C       -4.64806         9.98158         1.23043
   C       -5.59313        10.72601         0.56209
   C       -5.41921        11.06592        -0.78294
   C       -4.25887        10.63538        -1.43102
   C       -3.30790         9.90153        -0.75633
   C       -6.40610        11.88951        -1.47038
   C       -6.74168        11.71739        -2.82294
   C       -7.68022        12.57820        -3.50185
   N       -7.90599        12.39470        -4.82757
   C       -7.32569        11.42125        -5.43799
   C       -6.46772        10.51896        -4.74716
   N       -6.18862        10.67995        -3.50091
   F       -5.92524         9.47662        -5.37845
   F       -7.55458        11.27876        -6.74419
   C       -8.33742        13.63210        -2.84884
   C       -8.02058        13.79401        -1.48899
   C       -7.07811        12.93231        -0.80814
   N       -6.93513        13.28204         0.47632
   S       -7.89087        14.52546         0.79141
   N       -8.53391        14.71196        -0.66028
   C       -9.28700        14.51934        -3.50942
   C      -10.18796        14.04612        -4.46589
   C      -11.10691        14.89412        -5.04548
   C      -11.17075        16.23863        -4.67892
   C      -10.24667        16.71927        -3.74984
   C       -9.32448        15.87600        -3.17422
   C      -12.17764        17.12879        -5.27095
   C      -12.36217        17.00883        -6.72443
   C      -13.63551        16.98241        -7.29150
   C      -13.79068        16.85547        -8.65845
   C      -12.68017        16.74962        -9.48015
   C      -11.41114        16.75857        -8.92515
   C      -11.25180        16.87973        -7.55780
   C      -12.89897        17.98634        -4.50793
   C      -12.86152        17.94071        -3.03549
   C      -12.74691        19.12231        -2.30527
   C      -12.70647        19.09148        -0.92404
   C      -12.79346        17.88386        -0.25161
   C      -12.93089        16.70637        -0.96833
   C      -12.96736        16.73247        -2.34903
   C      -13.76888        19.02162        -5.07358
   C      -15.03425        19.24624        -4.52229
   C      -15.85255        20.22869        -5.02598
   C      -15.41446        21.07163        -6.05867
   C      -14.14842        20.84214        -6.61131
   C      -13.34760        19.83094        -6.13119
   C      -16.31193        22.09145        -6.52938
   C      -16.01855        23.32171        -7.02629
   C      -17.00397        24.26334        -7.53903
   C      -18.27509        23.96136        -7.95052
   C      -19.18441        24.90996        -8.46357
   N      -19.97141        25.63403        -8.88134
   C      -18.84430        22.67012        -7.95644
   N      -19.37424        21.65277        -8.01485
   C      -16.37327        25.57293        -7.62343
   C      -15.00494        25.43883        -7.25566
   C      -14.71564        24.03474        -6.90836
   O      -13.64726        23.59611        -6.54281
   C      -14.15303        26.50539        -7.24545
   C      -14.64081        27.78035        -7.60939
   C      -16.01159        27.92470        -7.97039
   C      -16.86983        26.80175        -7.97146
   C      -16.48934        29.20300        -8.32487
   C      -15.65457        30.28696        -8.32589
   C      -14.30452        30.14333        -7.97220
   C      -13.80854        28.91693        -7.62205
   H        2.93367         2.05178         9.22258
   H       -1.87086         1.49642         8.00481
   H       -1.87822        -0.69216         9.04559
   H       -0.71256        -2.48880        10.26137
   H        1.65890        -2.23663        10.87721
   H        2.88409        -0.18389        10.28267
   H        1.81131         6.29129         6.26648
   H        0.61705         8.33101         5.34893
   H       -0.91589         9.21615         3.65153
   H       -2.27277         5.25218         2.80722
   H       -0.76245         4.36703         4.52545
   H       -4.39230         7.10294         0.19479
   H       -6.60138         6.05149         0.41397
   H       -7.51706         5.54223         2.64871
   H       -6.19980         6.08707         4.66689
   H       -3.99980         7.15224         4.45442
   H       -0.27748         7.27169         0.87800
   H        2.02101         8.00812         0.41078
   H        2.55029        10.41528         0.28787
   H        0.76152        12.08262         0.62109
   H       -1.53882        11.34696         1.09432
   H       -4.79442         9.74025         2.27247
   H       -6.48220        11.04812         1.07957
   H       -4.09410        10.90337        -2.46184
   H       -2.41107         9.58569        -1.26997
   H      -10.17843        13.00257        -4.73489
   H      -11.80922        14.51030        -5.77169
   H      -10.25135        17.76714        -3.48947
   H       -8.61352        16.26713        -2.46439
   H      -14.50462        17.04633        -6.65323
   H      -14.78280        16.83485        -9.08486
   H      -12.80394        16.65322       -10.54851
   H      -10.54219        16.66831        -9.56027
   H      -10.26115        16.88962        -7.12598
   H      -12.67212        20.06484        -2.82931
   H      -12.60641        20.01348        -0.37006
   H      -12.76069        17.86089         0.82754
   H      -13.01217        15.76314        -0.44865
   H      -13.08920        15.81381        -2.90368
   H      -15.37485        18.62188        -3.70862
   H      -16.83558        20.37959        -4.60296
   H      -13.80655        21.44445        -7.43609
   H      -12.37207        19.66953        -6.56443
   H      -17.36162        21.84127        -6.41884
   H      -13.11838        26.37693        -6.96361
   H      -17.90406        26.94414        -8.24203
   H      -17.52916        29.30795        -8.59792
   H      -16.02986        31.26168        -8.59959
   H      -13.65980        31.00952        -7.97824
   H      -12.77000        28.80035        -7.34844
*
