# ORCA input file
# SCF done       -215.167615482666          0.000500689704
! CAM-B3LYP def2-SVP def2/J RIJCOSX Grid4 TightSCF
%maxcore 5000
%tddft
    Mode sTDDFT
    Ethresh 5.0
    maxcore 5000
end

%pal
  nprocs 6
  end
* xyz 0 1
   C       -0.42877         1.44131         4.24276
   C       -0.25203         0.13241         4.60954
   C        0.96988        -0.39998         5.07297
   N        1.93310        -0.89349         5.45539
   C       -1.24921        -0.86584         4.60551
   N       -2.00332        -1.73131         4.64118
   C        0.59822         2.47723         4.29676
   C        0.01776         3.71474         3.92230
   C        0.73139         4.88760         3.87407
   C        2.08872         4.83733         4.20816
   C        2.66227         3.59726         4.57868
   C        1.93802         2.41219         4.63023
   S        4.35217         3.75915         4.94544
   C        4.26751         5.46659         4.60176
   C        3.03737         5.89567         4.23110
  Br        5.81066         6.51952         4.76138
   C       -1.40346         3.50230         3.60725
   O       -2.20466         4.35665         3.26772
   C       -1.65178         2.06621         3.77171
   C       -2.82358         1.42180         3.46836
   C       -4.04666         1.93113         3.00607
   C       -5.12161         1.08817         2.69538
   C       -6.23407         1.78465         2.26699
   C       -6.01994         3.18542         2.26079
   S       -4.45214         3.62998         2.75546
   C       -7.21221         3.80565         1.81802
   C       -8.17251         2.81231         1.54302
   C       -7.58819         1.50905         1.81477
   C       -8.18734         0.29268         1.67035
   C       -7.51924        -0.91722         1.95573
   N       -6.98418        -1.90558         2.18077
   C       -9.51882         0.16513         1.22127
   N      -10.60181         0.06373         0.85844
   C       -9.38460         3.33484         1.10222
   C       -9.35883         4.71936         1.04408
   S       -7.80859         5.38235         1.53726
   C      -10.41236         5.57941         0.65254
   C      -10.41362         6.96495         0.64481
   C      -11.62920         7.48137         0.21007
   C      -12.56479         6.47968        -0.12727
   S      -11.94200         4.90505         0.10641
   C      -13.75259         7.09792        -0.56554
   C      -13.56755         8.50052        -0.52719
   C      -12.23098         8.78059        -0.02163
   C      -11.67653        10.00262         0.21617
   C      -10.40980        10.14494         0.82349
   N       -9.41162        10.25642         1.37491
   C      -12.34273        11.19777        -0.11786
   N      -12.87767        12.16697        -0.42061
   C      -14.68706         9.20994        -0.91996
   C      -15.76052         8.37718        -1.25013
   S      -15.32298         6.67174        -1.07627
   C      -17.07125         8.69597        -1.62387
   C      -17.59154         9.94671        -1.87693
   C      -18.94741        10.24656        -2.15248
   C      -19.20429        11.57158        -2.36409
   C      -18.05699        12.38523        -2.29319
   S      -16.65054        11.42373        -1.91959
   C      -17.89534        13.74624        -2.51166
   C      -18.81915        14.76816        -2.79342
   C      -18.23232        15.98325        -3.02472
   C      -16.82013        15.97091        -2.97532
   S      -16.26869        14.37860        -2.54504
   C      -15.96723        17.05559        -3.15141
   C      -14.57796        17.04081        -3.18540
   C      -13.71054        15.97636        -3.40340
   C      -12.34705        15.99468        -2.82691
   O      -11.76766        16.93173        -2.32875
   C      -11.85785        14.58929        -2.94599
   C      -12.80416        13.84754        -3.67194
   C      -12.66085        12.48185        -3.82226
   C      -11.54791        11.85557        -3.26396
   C      -10.58447        12.60880        -2.57332
   C      -10.73894        13.99189        -2.41180
   C       -9.43508        11.98714        -2.02726
   N       -8.47289        11.54721        -1.58794
   C      -11.43280        10.36817        -3.29607
   O      -10.92337         9.73931        -2.40514
   O      -11.97007         9.74258        -4.34865
   C      -13.87994        14.74050        -4.09670
   C      -14.77868        14.44846        -5.10233
   C      -15.71981        15.36550        -5.60151
   N      -16.50245        16.08216        -6.04047
   C      -14.79654        13.21783        -5.77922
   N      -14.83827        12.21206        -6.33476
   H        0.25865         5.81341         3.58606
   H        2.42336         1.49427         4.91614
   H        2.80726         6.91559         3.98263
   H       -2.83283         0.34418         3.57990
   H       -5.05584         0.01858         2.79012
   H      -10.25184         2.75722         0.83652
   H       -9.56274         7.55227         0.93975
   H      -14.74175        10.28166        -0.94136
   H      -17.75975         7.86518        -1.71249
   H      -19.69543         9.47391        -2.18016
   H      -20.17586        11.97529        -2.58484
   H      -19.87951        14.59203        -2.81809
   H      -18.77406        16.88031        -3.26519
   H      -16.44963        18.02380        -3.18506
   H      -14.08046        17.97350        -2.93860
   H      -13.43485        11.90064        -4.30024
   H      -10.00803        14.56494        -1.86203
   H      -12.33036        10.34201        -5.01863
*
