# ORCA input file
# SCF done       -243.054493367148          0.000898943905
! CAM-B3LYP def2-SVP def2/J RIJCOSX Grid4 TightSCF
%maxcore 5000
%tddft
    Mode sTDDFT
    Ethresh 5.0
    maxcore 5000
end

%pal
  nprocs 6
  end
* xyz 0 1
   C        3.90071        -1.37693        -0.27675
   C        3.29400        -0.41023         0.48281
   C        3.82409         0.88524         0.67479
   N        4.20437         1.94827         0.87840
   C        2.06039        -0.52902         1.15860
   N        1.06265        -0.53198         1.72937
   C        5.14262        -1.20715        -1.02667
   C        5.37024        -2.36099        -1.79746
   C        6.46599        -2.47876        -2.62757
   C        7.36858        -1.42401        -2.68267
   C        7.15495        -0.27381        -1.91260
   C        6.04371        -0.15603        -1.08477
  Cl        8.27805         1.02107        -1.98694
  Cl        8.74746        -1.53358        -3.69701
   C        4.28096        -3.33391        -1.57463
   O        4.10011        -4.36485        -2.18538
   C        3.42500        -2.72896        -0.52528
   C        2.34007        -3.28499         0.08739
   C        1.85449        -4.62539         0.04935
   C        2.77082        -5.72709        -0.28252
   C        2.43507        -6.64505        -1.27640
   C        3.31289        -7.64987        -1.62372
   C        4.53086        -7.77428        -0.95904
   C        4.84989        -6.88308         0.06139
   C        3.98624        -5.85834         0.38515
   C        5.50925        -8.85248        -1.28566
   O        6.23810        -9.34342        -0.46895
   O        5.53757        -9.25115        -2.57060
   C        0.53039        -4.84990         0.37068
   C       -0.37498        -3.68980         0.42687
   C       -0.41388        -2.77469        -0.62696
   C       -1.20736        -1.65184        -0.54330
   C       -1.96696        -1.40018         0.59829
   C       -1.93178        -2.31455         1.64835
   C       -1.15886        -3.45446         1.55467
   C       -2.77408        -0.13821         0.59642
   O       -2.79041         0.59797        -0.35389
   O       -3.50136         0.14543         1.68160
   C       -0.04987        -6.13362         0.65688
   C       -1.38571        -6.37756         0.41964
   C       -2.03470        -7.57942         0.68103
   C       -1.32467        -8.71829         1.26567
   C       -0.01638        -8.69283         1.61035
   S        1.00151        -7.33565         1.39403
   C       -2.28562        -9.76051         1.34863
   C       -3.51351        -9.32050         0.84004
   C       -4.50523       -10.32296         0.94126
   C       -4.01239       -11.46389         1.49103
   S       -2.33867       -11.37783         1.91748
   C       -3.37143        -7.95294         0.41230
   C       -4.35201        -7.11815        -0.16743
   C       -5.50572        -7.56690        -0.73356
   C       -6.51397        -6.76794        -1.34710
   C       -7.27634        -7.40270        -2.42798
   C       -6.60944        -8.11692        -3.42498
   C       -7.29223        -8.56253        -4.53856
   C       -8.64957        -8.29475        -4.67331
   C       -9.34021        -7.67349        -3.63775
   C       -8.66002        -7.24206        -2.51811
   C       -9.35282        -8.61566        -5.95968
   O       -9.32563        -9.69691        -6.47905
   O      -10.00072        -7.57893        -6.48979
   C       -6.82010        -5.45722        -1.00482
   C       -6.29079        -4.84626         0.22532
   C       -5.70678        -3.57995         0.18912
   C       -5.28795        -2.96216         1.34858
   C       -5.41973        -3.61511         2.57228
   C       -5.97915        -4.89404         2.60924
   C       -6.41093        -5.50029         1.45234
   C       -5.04275        -2.99484         3.85410
   O       -5.22519        -3.48310         4.93903
   O       -4.43983        -1.78415         3.73152
   C       -7.64591        -4.68216        -1.86802
   C       -8.35766        -3.54904        -1.57816
   C       -8.97751        -2.68323        -2.56122
   C       -9.30189        -2.98770        -3.86039
   C       -9.88845        -2.06669        -4.75750
   N      -10.35271        -1.36471        -5.53709
   C       -9.21725        -4.25092        -4.46871
   N       -9.26469        -5.24584        -5.04567
   C       -9.30339        -1.42663        -1.88956
   C       -9.10820        -1.59317        -0.50697
   C       -8.61733        -2.96289        -0.23990
   O       -8.54006        -3.50694         0.83873
   C       -9.36882        -0.58102         0.39214
   C       -9.81785         0.63878        -0.10106
   C      -10.00354         0.81772        -1.47729
   C       -9.75352        -0.21182        -2.37897
  Cl      -10.55271         2.32977        -2.07336
  Cl      -10.14355         1.92704         0.98240
   H        6.61656        -3.37018        -3.21560
   H        5.91301         0.74564        -0.50964
   H        1.76772        -2.62707         0.72771
   H        1.49289        -6.54561        -1.79538
   H        3.02816        -8.35304        -2.39541
   H        5.78997        -7.00246         0.57763
   H        4.24463        -5.15543         1.16361
   H        4.95712        -8.72025        -3.13222
   H        0.17618        -2.96072        -1.51247
   H       -1.24779        -0.93650        -1.35051
   H       -2.49028        -2.15832         2.55785
   H       -1.12887        -4.15248         2.37842
   H       -3.47129        -0.52862         2.37797
   H       -1.95251        -5.57748        -0.03791
   H        0.48652        -9.54309         2.04360
   H       -5.53306       -10.22099         0.64616
   H       -4.54055       -12.37759         1.68167
   H       -4.12851        -6.06025        -0.20357
   H       -5.64348        -8.63489        -0.82886
   H       -5.54228        -8.26639        -3.34677
   H       -6.77703        -9.08312        -5.33117
   H      -10.40670        -7.52023        -3.71507
   H       -9.19364        -6.76324        -1.70999
   H       -9.83321        -6.74363        -6.00302
   H       -5.60332        -3.06512        -0.75613
   H       -4.89842        -1.95886         1.30315
   H       -6.09012        -5.38027         3.56631
   H       -6.88096        -6.47092         1.49211
   H       -4.30220        -1.41414         4.61885
   H       -7.66499        -5.00713        -2.90292
   H       -9.22307        -0.73357         1.44974
   H       -9.90826        -0.03650        -3.43086
*
