# ORCA input file
# SCF done       -169.686873488103          0.000748653489
! CAM-B3LYP def2-SVP def2/J RIJCOSX Grid4 TightSCF
%maxcore 5000
%tddft
    Mode sTDDFT
    Ethresh 5.0
    maxcore 5000
end

%pal
  nprocs 6
  end
* xyz 0 1
   C       -0.01608        -1.57662        -5.02508
   C       -0.91498        -0.79633        -5.68602
   C       -1.06731         0.45436        -5.05689
   C       -0.26222         0.58122        -3.91868
   S        0.66924        -0.81798        -3.62545
   C       -0.48039         1.86834        -3.34824
   C       -1.42346         2.54613        -4.13115
   C       -1.82347         1.67962        -5.23410
   C       -2.71932         1.97040        -6.22102
   C       -3.38936         3.21009        -6.28327
   N       -3.93588         4.21676        -6.33847
   C       -3.03410         1.05373        -7.24596
   N       -3.29454         0.31307        -8.08153
   C       -1.71224         3.82460        -3.65096
   C       -0.99293         4.12069        -2.50879
   S        0.05719         2.79844        -2.02123
   C       -1.03235         5.31713        -1.74710
   C       -0.30408         5.62369        -0.61375
   C       -0.60768         6.89599        -0.12635
   C       -1.57652         7.55920        -0.89647
   S       -2.11194         6.62243        -2.22043
   C       -1.81938         8.83162        -0.31989
   C       -1.00180         8.97610         0.81246
   C       -0.21484         7.76232         0.97415
   C        0.69075         7.48844         1.95598
   C        0.98645         8.40787         2.98481
   N        1.22466         9.15091         3.82466
   C        1.38782         6.26296         2.00993
   N        1.95611         5.26796         2.05500
   C       -1.17528        10.20239         1.45576
   C       -2.12218        10.98784         0.82576
   S       -2.80450        10.19997        -0.59112
   C       -2.57739        12.27629         1.20485
   C       -3.58007        13.02575         0.62355
   C       -3.80033        14.24329         1.26170
   C       -2.96593        14.45503         2.34047
   S       -1.88338        13.10992         2.56736
   C       -2.93598        15.57380         3.21162
   C       -2.04537        15.82930         4.23715
   C       -2.33613        17.02496         4.89585
   C       -3.46189        17.67927         4.37048
   S       -4.15365        16.83383         3.05797
   C       -3.68852        18.86370         5.11626
   C       -2.70212        18.96259         6.11059
   C       -1.81390        17.81578         6.00064
   C       -0.71922        17.54490         6.76701
   C       -0.30966        18.39709         7.81428
   N        0.02624        19.08788         8.66567
   C        0.07898        16.39960         6.56104
   N        0.73214        15.47244         6.39392
   C       -2.85095        20.09550         6.91237
   C       -3.94394        20.85333         6.53821
   S       -4.79921        20.16014         5.16668
   C       -4.41373        22.05396         7.13068
   C       -5.53200        22.78561         6.77876
   C       -5.69642        23.90836         7.59166
   C       -4.69559        24.03050         8.56386
   S       -3.55025        22.76670         8.48527
   C       -4.95685        25.19918         9.33558
   C       -6.12042        25.80599         8.84800
   C       -6.62849        25.02049         7.73929
   C       -7.74401        25.25941         6.99120
   C       -8.58311        26.36914         7.22420
   N       -9.27005        27.26839         7.40904
   C       -8.13382        24.41038         5.93438
   N       -8.45298        23.72102         5.07526
   C       -6.45480        26.97506         9.55841
   C       -5.55623        27.22566        10.55012
   S       -4.28273        26.05407        10.64938
   H        0.29732        -2.57107        -5.27214
   H       -1.43637        -1.10602        -6.57318
   H       -2.40612         4.51400        -4.09759
   H        0.40685         4.94525        -0.17728
   H       -0.65329        10.52172         2.33991
   H       -4.13307        12.68668        -0.23452
   H       -4.54289        14.95854         0.95493
   H       -1.23290        15.16712         4.47712
   H       -2.20882        20.36466         7.73177
   H       -6.18419        22.50141         5.97248
   H       -7.30699        27.59673         9.35325
   H       -5.55644        28.04011        11.24642
*
