# ORCA input file
# SCF done       -203.070438144771          0.000717101025
! CAM-B3LYP def2-SVP def2/J RIJCOSX Grid4 TightSCF
%maxcore 5000
%tddft
    Mode sTDDFT
    Ethresh 5.0
    maxcore 5000
end

%pal
  nprocs 6
  end
* xyz 0 1
   C       -3.47763        -2.95592        -1.33428
   C       -4.69650        -3.35596        -1.88593
   C       -5.75349        -2.28484        -1.95965
   O       -5.45125        -1.12573        -1.90523
   O       -7.03199        -2.65298        -2.06688
   C       -4.85156        -4.66834        -2.36627
   C       -6.05553        -5.14801        -2.93221
   N       -7.01249        -5.59379        -3.38355
   C       -3.78537        -5.57715        -2.31630
   C       -2.59339        -5.15987        -1.77210
   C       -2.43164        -3.85784        -1.26565
   C       -1.07557        -3.74545        -0.73793
   C       -0.61124        -2.76000         0.09384
   C       -1.35498        -1.61951         0.46251
   N       -1.91632        -0.67646         0.79586
   C        0.62528        -2.84443         0.77098
   N        1.58695        -2.90747         1.39508
   C       -0.35659        -4.95469        -1.08488
   C       -1.32542        -5.92142        -1.63033
   O       -1.16651        -7.08144        -1.95026
   C        1.01965        -5.01348        -1.07000
   C        1.91563        -6.09300        -1.15459
   C        1.58244        -7.41883        -1.02487
   C        2.54341        -8.43755        -0.92389
   C        3.87804        -8.18361        -0.75410
   C        4.35476        -6.74765        -0.70287
   C        3.38405        -5.76058        -1.38296
   N        3.67197        -4.39075        -1.02409
   C        4.18911        -4.15471         0.10012
   C        4.54161        -5.23449         1.04734
   N        4.61128        -6.43955         0.68995
   F        4.77269        -4.91486         2.30962
   F        4.47957        -2.91005         0.43337
   C        4.82723        -9.19909        -0.50214
   C        6.18129        -9.06153        -0.22190
   C        6.80762       -10.28208        -0.01109
   C        5.92567       -11.38220        -0.12527
   S        4.33385       -10.89807        -0.49571
   C        6.65180       -12.56509         0.10963
   C        7.99465       -12.22844         0.37405
   C        8.13420       -10.78065         0.29825
   C        9.27686       -10.05208         0.46180
   C       10.51526       -10.65881         0.75698
   N       11.52030       -11.15660         0.99586
   C        9.29166        -8.64819         0.32504
   N        9.30539        -7.50889         0.19632
   C        8.79617       -13.33581         0.62020
   C        8.08474       -14.52627         0.54942
   S        6.38619       -14.25529         0.16818
   C        8.58113       -15.84213         0.74301
   C        7.78050       -16.96044         0.65248
   C        8.21660       -18.26690         0.82866
   C        9.61817       -18.56408         1.13567
   C       10.57981       -17.62584         1.27315
   S       10.30275       -15.94176         1.10687
   C        9.68518       -19.97978         1.24042
   C        8.42276       -20.54068         1.01787
   C        8.46196       -21.95116         1.11567
   C        9.71078       -22.40377         1.39993
   S       10.89420       -21.15287         1.56259
   C        7.48608       -19.47715         0.75770
   C        6.10605       -19.55648         0.48080
   C        5.35677       -20.68941         0.40274
   C        3.97350       -20.70946         0.12061
   C        3.16522       -21.83449         0.03095
   C        1.84306       -21.51324        -0.26249
   C        1.63220       -20.13249        -0.39979
   S        3.06134       -19.22876        -0.16719
   C        0.26008       -19.91364        -0.69736
   C       -0.39176       -21.15378        -0.74699
   C        0.57295       -22.20053        -0.47639
   C        0.35187       -23.54625        -0.42821
   C       -0.92293       -24.10749        -0.65075
   N       -1.95761       -24.56852        -0.82791
   C        1.38572       -24.46520        -0.15359
   N        2.22727       -25.21177         0.06968
   C       -1.76339       -21.02783        -1.03957
   C       -2.11807       -19.72357        -1.20252
   S       -0.80174       -18.61255        -1.00628
   H       -3.38865        -1.93730        -0.98897
   H       -7.18776        -3.60532        -2.15509
   H       -3.89872        -6.58008        -2.69966
   H        1.51748        -4.05271        -0.98452
   H        0.54312        -7.69862        -0.96739
   H        2.19686        -9.46112        -0.90489
   H        5.32265        -6.67408        -1.21851
   H        3.54255        -5.81501        -2.47023
   H        6.67283        -8.10951        -0.15294
   H        9.84733       -13.29858         0.84283
   H        6.73660       -16.78596         0.42554
   H       11.60494       -17.87194         1.50047
   H        7.62799       -22.61558         0.98709
   H       10.02333       -23.42157         1.52852
   H        5.59852       -18.61382         0.31491
   H        5.80856       -21.65626         0.55996
   H        3.54110       -22.83101         0.17575
   H       -2.45148       -21.84873        -1.12574
   H       -3.08832       -19.32997        -1.43041
*
