# ORCA input file
# SCF done       -205.221220154110          0.000783663221
! CAM-B3LYP def2-SVP def2/J RIJCOSX Grid4 TightSCF
%maxcore 5000
%tddft
    Mode sTDDFT
    Ethresh 5.0
    maxcore 5000
end

%pal
  nprocs 6
  end
* xyz 0 1
   C       -0.41977        -0.95106         2.89733
   O        0.61046        -0.35561         2.66792
   C       -1.75320        -0.38223         3.04925
   C       -2.70624        -1.36632         3.27526
   C       -4.00372        -0.83790         3.42151
   C       -3.99122         0.52056         3.30110
   S       -2.42723         1.18604         3.01037
   C       -2.05090        -2.65790         3.29445
   C       -2.69549        -3.84297         3.53429
   C       -4.08849        -3.89146         3.75970
   N       -5.21895        -3.95987         3.94327
   C       -2.11134        -5.12358         3.60261
   N       -1.71300        -6.19814         3.68214
   C       -0.63133        -2.42193         3.04936
   C        0.28491        -3.42675         2.92419
   C        1.68372        -3.40187         2.74520
   C        2.62283        -2.37943         2.77552
   C        3.91460        -2.84767         2.57827
   C        3.97671        -4.24759         2.38433
   S        2.44589        -4.97857         2.46836
   C        5.32596        -4.61254         2.17103
   C        6.12049        -3.45312         2.23399
   C        5.26086        -2.30800         2.50181
   C        5.65537        -1.01335         2.66288
   C        4.76381         0.03972         2.96496
   N        4.07610         0.91773         3.22787
   C        7.01081        -0.63267         2.55762
   N        8.11050        -0.32076         2.46978
   C        7.47303        -3.71092         2.03454
   C        7.71750        -5.05767         1.81621
   S        6.24947        -6.01998         1.86273
   C        8.97408        -5.66228         1.57376
   C        9.24973        -6.99693         1.32988
   C       10.61054        -7.22067         1.12913
   C       11.37755        -6.03910         1.22454
   S       10.42387        -4.66278         1.55775
   C       12.73064        -6.35596         1.00715
   C       12.83726        -7.74640         0.76933
   C       11.50112        -8.32842         0.83989
   C       11.16456        -9.63927         0.66461
   C        9.82934       -10.08611         0.75205
   N        8.74336       -10.44717         0.82272
   C       12.13007       -10.62804         0.38342
   N       12.91505       -11.43169         0.15285
   C       14.13811        -8.15337         0.53819
   C       15.04768        -7.08891         0.59262
   S       14.24000        -5.56158         0.94526
   C       16.42715        -7.18361         0.38985
   C       17.34632        -6.15868         0.42706
   C       18.73895        -6.27095         0.19992
   C       19.41866        -5.09077         0.28493
   C       18.59702        -3.98608         0.58969
   S       16.93556        -4.48992         0.76341
   C       18.94375        -2.65275         0.75149
   C       20.20684        -2.04274         0.61822
   C       20.18896        -0.69482         0.84116
   C       18.91387        -0.18065         1.16402
   S       17.73339        -1.46741         1.17827
   C       18.59106         1.13162         1.46041
   C       17.29619         1.52665         1.77550
   C       16.81370         2.76429         2.14285
   C       15.35305         2.99786         2.03954
   O       14.49910         2.16321         1.83365
   C       15.17437         4.45547         2.19351
   C       14.03083         5.19330         2.10191
   C       14.10462         6.59568         2.26114
   C       15.36976         7.20341         2.50472
   C       15.43875         8.60251         2.65621
   C       14.30486         9.36130         2.57352
   C       13.05430         8.75872         2.33461
   C       12.95455         7.40420         2.18118
   F       11.95867         9.52805         2.25770
   F       14.37337        10.69228         2.71967
   C       16.53717         6.40947         2.60020
   C       16.44027         5.05215         2.45512
   C       17.44608         3.98937         2.54510
   C       18.69284         4.14366         3.10722
   C       19.54798         3.08540         3.46957
   N       20.27034         2.26930         3.83268
   C       19.23110         5.38638         3.49461
   N       19.73454         6.37036         3.80728
   H       -4.89268        -1.41261         3.60262
   H       -4.83167         1.18348         3.36842
   H       -0.11387        -4.43408         2.96362
   H        2.35130        -1.35008         2.92614
   H        8.25434        -2.97226         2.04118
   H        8.48508        -7.75263         1.30200
   H       14.44762        -9.16264         0.33506
   H       16.80753        -8.17402         0.17530
   H       19.19481        -7.21969        -0.02152
   H       20.47914        -4.99080         0.14078
   H       21.08768        -2.60261         0.36011
   H       21.05348        -0.05725         0.79339
   H       19.39309         1.85272         1.42041
   H       16.51658         0.77848         1.65044
   H       13.08246         4.71400         1.91253
   H       16.38776         9.08028         2.84330
   H       11.98992         6.95690         1.99909
   H       17.47966         6.90078         2.78082
*
