# ORCA input file
# SCF done       -181.856715412100          0.000840524202
! CAM-B3LYP def2-SVP def2/J RIJCOSX Grid4 TightSCF
%maxcore 5000
%tddft
    Mode sTDDFT
    Ethresh 5.0
    maxcore 5000
end

%pal
  nprocs 6
  end
* xyz 0 1
   C       -2.65621         0.30325        -0.33466
   S       -3.61224        -0.84780         0.53003
   C       -2.18703        -1.67646         1.06657
   O       -2.25162        -2.76435         1.84991
   C       -1.03467        -1.08279         0.59421
   C       -1.33664         0.05708        -0.21126
   C        0.29449        -1.54445         0.87188
   C        0.67850        -2.62992         1.62966
   C        2.06914        -2.76981         1.67554
   C        2.74353        -1.78061         0.94587
   S        1.66773        -0.68015         0.20430
   C        4.13902        -2.00959         1.05402
   C        4.34766        -3.14664         1.85311
   C        3.05179        -3.66072         2.27247
   C        2.80961        -4.74562         3.06209
   C        1.50352        -5.15285         3.40731
   N        0.44753        -5.49496         3.69492
   C        3.85085        -5.53690         3.59199
   N        4.69425        -6.17998         4.02696
   C        5.69724        -3.45772         2.01785
   C        6.51903        -2.56515         1.35174
   S        5.60122        -1.32245         0.50867
   C        7.93633        -2.56534         1.29361
   C        8.80585        -3.47859         1.86833
   C       10.13844        -3.16491         1.60406
   C       10.28611        -2.00473         0.82431
   S        8.78323        -1.30239         0.41505
   C       11.66531        -1.77211         0.61483
   C       12.39700        -2.78462         1.26170
   C       11.46132        -3.69565         1.90130
   C       11.76351        -4.81488         2.61921
   C       10.76829        -5.63541         3.19142
   N        9.96419        -6.30673         3.65708
   C       13.09532        -5.22869         2.83245
   N       14.17714        -5.56728         3.00563
   C       13.77466        -2.63908         1.11175
   C       14.10403        -1.52756         0.35569
   S       12.67121        -0.64610        -0.17728
   C       15.40098        -1.06726        -0.00814
   C       15.59614         0.04728        -0.79316
   C       16.83611         0.53632        -1.18565
   C       18.07804        -0.11870        -0.77608
   C       18.12561        -1.22595        -0.00110
   S       16.73703        -2.02367         0.61145
   C       19.12017         0.65106        -1.36303
   C       18.58324         1.71397        -2.09376
   C       19.59442         2.49936        -2.69163
   C       20.83443         2.02196        -2.40508
   S       20.83616         0.61042        -1.40588
   C       17.14248         1.65859        -1.99340
   C       16.18544         2.51156        -2.56025
   C       16.43175         3.59536        -3.36214
   C       15.38432         4.37239        -3.86928
   C       15.53596         5.47277        -4.68226
   C       14.47944         6.29636        -5.21899
   C       13.12587         6.14619        -5.02654
   C       12.14780         6.99477        -5.58175
   N       11.30009         7.64769        -5.99996
   C       12.50941         5.13975        -4.25755
   N       11.92388         4.35503        -3.65508
   C       15.10014         7.34698        -6.02264
   C       16.50528         7.17690        -5.98530
   C       16.83192         6.00312        -5.14747
   O       17.94878         5.58428        -4.90797
   C       17.37076         8.01164        -6.64763
   C       16.82400         9.06883        -7.38360
   C       15.41978         9.23121        -7.41484
   C       14.54380         8.38529        -6.74497
   S       14.95557        10.59992        -8.38097
   C       16.63282        10.92970        -8.72421
   C       17.49707        10.06205        -8.14719
  Br       17.08470        12.39011        -9.81226
   H       -3.14819         1.08537        -0.87588
   H       -3.16483        -2.99853         2.05470
   H       -0.57359         0.65770        -0.67298
   H       -0.02595        -3.27677         2.11686
   H        6.07021        -4.28603         2.59111
   H        8.47564        -4.32291         2.44432
   H       14.51207        -3.30302         1.52581
   H       14.70620         0.56695        -1.12299
   H       19.05278        -1.69381         0.28959
   H       19.43918         3.37002        -3.30129
   H       21.77775         2.41902        -2.72549
   H       15.14839         2.28483        -2.34082
   H       17.43964         3.86970        -3.62056
   H       14.38107         4.07455        -3.59261
   H       18.43718         7.85556        -6.60006
   H       13.48133         8.55257        -6.80135
   H       18.56504        10.11815        -8.25396
*
