# ORCA input file
# SCF done       -193.222015546912          0.000617273442
! CAM-B3LYP def2-SVP def2/J RIJCOSX Grid4 TightSCF
%maxcore 5000
%tddft
    Mode sTDDFT
    Ethresh 5.0
    maxcore 5000
end

%pal
  nprocs 6
  end
* xyz 0 1
   C       -0.23735         1.25493         2.11002
   C       -1.44476         1.86795         2.23163
   S       -2.17744         2.11551         0.68756
   C       -0.83032         1.37087        -0.14277
  Cl       -0.81010         1.20010        -1.82732
   C        0.11527         0.97071         0.75246
   C        1.40845         0.28482         0.70591
   O        1.99084        -0.10304        -0.28576
   C        1.83983         0.18358         2.12313
   C        0.81476         0.76212         2.97610
   C        0.76644         0.81730         4.34659
   C       -0.30810         1.44296         5.01422
   N       -1.15447         1.97338         5.57838
   C        1.70168         0.27453         5.24236
   N        2.41043        -0.16608         6.03444
   C        3.02842        -0.30377         2.60562
   C        4.09030        -0.97836         1.98380
   C        4.28895        -1.49456         0.70312
   C        5.47984        -2.19278         0.59298
   C        6.23078        -2.18960         1.79711
   S        5.45262        -1.35849         3.05576
   C        7.40566        -2.91912         1.59963
   C        7.43238        -3.41360         0.27339
   C        6.19889        -2.99339        -0.38556
   C        5.76957        -3.36570        -1.62464
   C        4.48455        -3.04253        -2.11005
   N        3.42628        -2.83151        -2.49710
   C        6.56655        -4.15190        -2.48313
   N        7.22240        -4.77489        -3.18774
   C        8.54919        -4.18860         0.01980
   C        9.38122        -4.32186         1.14423
   S        8.74894        -3.41637         2.51917
   C       10.52883        -5.11501         1.25299
   C       11.20867        -5.37921         2.42645
   C       12.25648        -6.30227         2.66007
   C       12.57788        -6.47837         3.98070
   C       11.80244        -5.69716         4.85639
   S       10.73034        -4.66383         3.94303
   C       11.61024        -5.68603         6.23348
   C       12.16366        -6.41006         7.30471
   C       11.50361        -6.22405         8.49090
   C       10.37748        -5.37007         8.40688
   S       10.28271        -4.69880         6.80103
   C        9.37632        -5.17616         9.33887
   C        8.13660        -4.57758         9.09159
   C        7.01460        -4.63250         9.93560
   C        5.86956        -4.15660         9.32677
   C        6.10053        -3.68555         8.01009
   S        7.73743        -3.82320         7.54643
   C        4.87165        -3.36922         7.41772
   C        3.83442        -3.62574         8.35126
   C        4.43384        -4.09504         9.58614
   C        3.79684        -4.44074        10.74228
   C        4.50282        -4.90058        11.87323
   N        5.07837        -5.27655        12.79113
   C        2.39517        -4.36397        10.88429
   N        1.25707        -4.30856        11.01011
   C        2.57359        -3.44825         7.80258
   C        2.62291        -3.11956         6.44929
   S        4.27943        -2.89330         5.89586
   C        1.50172        -2.95592         5.61600
   C        1.35999        -3.03403         4.25510
   C        0.12607        -2.44817         3.65282
   O       -0.79813        -1.94705         4.25317
   C        0.31777        -2.56835         2.20403
   C       -0.39341        -2.31117         1.06952
   S        0.48501        -2.83214        -0.34711
   C        1.79123        -3.41421         0.61149
   C        1.57411        -3.20355         1.93893
   C        2.18807        -3.57574         3.20179
   C        3.21144        -4.49414         3.29658
   C        3.99862        -4.83524         2.18388
   N        4.70899        -5.07030         1.31094
   C        3.50819        -5.25299         4.44223
   N        3.72690        -5.96498         5.31752
  Cl       -1.94172        -1.62793         0.95386
   H       -1.96076         2.18875         3.11444
   H        3.19070        -0.16055         3.66812
   H        3.57946        -1.33726        -0.08928
   H        8.77064        -4.67201        -0.91470
   H       10.86179        -5.61621         0.35418
   H       12.71691        -6.84332         1.85229
   H       13.31834        -7.17358         4.33424
   H       13.00598        -7.06668         7.17846
   H       11.76340        -6.72134         9.40881
   H        9.50869        -5.62346        10.31510
   H        7.06310        -5.05490        10.92313
   H        1.64408        -3.60483         8.32016
   H        0.58518        -2.68899         6.13720
   H        2.62771        -3.87123         0.12179
*
