# ORCA input file
# SCF done       -155.816317242865          0.000522932956
! CAM-B3LYP def2-SVP def2/J RIJCOSX Grid4 TightSCF
%maxcore 5000
%tddft
    Mode sTDDFT
    Ethresh 5.0
    maxcore 5000
end

%pal
  nprocs 6
  end
* xyz 0 1
   C       -0.24268        -0.36832        -5.38040
   C        0.42787         0.76300        -5.76424
   C        0.26375         1.98387        -5.09690
   C       -0.58018         2.13914        -4.01031
   C       -1.28931         0.97993        -3.58872
   C       -1.11160        -0.26998        -4.28294
   N       -1.85199        -1.24556        -3.75270
   S       -2.68118        -0.65175        -2.51422
   N       -2.15141         0.86543        -2.58060
   C       -0.74416         3.39556        -3.33876
   C       -1.56228         3.68237        -2.26948
   C       -1.47745         5.02021        -1.87565
   C       -0.57198         5.76813        -2.66250
   S        0.16151         4.81545        -3.87523
   C       -0.56080         7.09941        -2.20212
   C       -1.46172         7.19811        -1.12058
   C       -2.06427         5.88837        -0.88588
   C       -2.99526         5.57407         0.06617
   C       -3.51321         6.51451         0.97920
   N       -3.95879         7.25294         1.73672
   C       -3.52622         4.27794         0.21620
   N       -3.98276         3.23577         0.36752
   C       -1.54956         8.46702        -0.58509
   C       -0.72446         9.38785        -1.24071
   S        0.18245         8.60687        -2.54407
   C       -0.55508        10.75906        -1.01749
   C       -1.24000        11.53439        -0.10242
   C       -1.09117        12.92248         0.12446
   C       -1.92568        13.43845         1.08083
   C       -2.77641        12.48264         1.66009
   S       -2.48195        10.91158         0.95710
   C       -3.75990        12.55240         2.63868
   C       -4.26806        13.61126         3.41184
   C       -5.25734        13.22892         4.27738
   C       -5.57682        11.85162         4.23142
   S       -4.57386        11.06023         3.04081
   C       -6.51312        11.16678         4.97765
   C       -6.78367         9.79641         4.90105
   C       -7.72721         9.09678         5.66689
   C       -7.75356         7.74743         5.36538
   C       -6.82734         7.39204         4.35717
   S       -5.93027         8.72247         3.78920
   C       -6.92466         6.00641         4.12401
   C       -7.90792         5.46865         4.97949
   C       -8.46141         6.53956         5.78205
   C       -9.44103         6.44995         6.72950
   C      -10.06770         5.23108         7.06164
   N      -10.59250         4.25154         7.34588
   C       -9.89506         7.57801         7.44209
   N      -10.26762         8.49411         8.02392
   C       -8.06634         4.09004         4.81648
   C       -7.22331         3.57783         3.85227
   S       -6.20743         4.82300         3.12589
   C       -7.10461         2.21551         3.41529
   C       -6.24266         1.83908         2.39934
   C       -6.11663         0.51388         1.96152
   C       -6.84436        -0.50491         2.51742
   C       -7.73346        -0.18101         3.55430
   C       -7.87333         1.17816         4.01214
   N       -8.76084         1.27666         4.99976
   S       -9.35595        -0.18292         5.31760
   N       -8.52614        -1.01810         4.22701
   H       -0.12433        -1.31173        -5.88693
   H        1.10442         0.72404        -6.60474
   H        0.81935         2.84228        -5.44691
   H       -2.18632         2.93616        -1.81303
   H       -2.17629         8.71162         0.24933
   H        0.17303        11.26683        -1.63634
   H       -0.37324        13.50509        -0.42595
   H       -1.94437        14.47341         1.37307
   H       -3.90080        14.61777         3.31703
   H       -5.76475        13.89954         4.94859
   H       -7.09313        11.73427         5.69355
   H       -8.34562         9.58204         6.40047
   H       -8.75310         3.46851         5.36146
   H       -5.63713         2.59202         1.91564
   H       -5.42125         0.30867         1.16219
   H       -6.75611        -1.52763         2.18955
*
