# ORCA input file
# SCF done       -224.713838706812          0.000635171373
! CAM-B3LYP def2-SVP def2/J RIJCOSX Grid4 TightSCF
%maxcore 5000
%tddft
    Mode sTDDFT
    Ethresh 5.0
    maxcore 5000
end

%pal
  nprocs 6
  end
* xyz 0 1
   C        0.85305         4.78930        -2.44506
   C        1.34845         6.02387        -2.77614
   C        2.62913         6.23838        -3.33081
   N        3.65344         6.48619        -3.78531
   C        0.69659         7.26343        -2.60034
   N        0.25084         8.31573        -2.48391
   C        1.58461         3.53550        -2.57283
   C        0.79928         2.49343        -2.02411
   C        1.21968         1.18593        -1.98374
   C        2.47811         0.89021        -2.51678
   C        3.25513         1.93671        -3.07092
   C        2.82992         3.25841        -3.10783
   S        4.77291         1.35177        -3.68046
   C        4.35123        -0.26707        -3.18797
   C        3.13599        -0.36704        -2.59789
  Br        5.55394        -1.67060        -3.50096
   C       -0.48100         3.03955        -1.53930
   O       -1.36580         2.40352        -1.00905
   C       -0.44830         4.48819        -1.86174
   C       -1.45316         5.40584        -1.74166
   C       -2.75201         5.31563        -1.19778
   C       -3.43325         4.31790        -0.51060
   C       -4.71710         4.71238        -0.15540
   C       -5.02726         6.02459        -0.57298
   S       -3.74164         6.77086        -1.38765
   C       -6.35558         6.32136        -0.17436
   C       -6.88656         5.20474         0.48924
   C       -5.87566         4.16094         0.53573
   C       -5.99655         2.93394         1.11600
   C       -4.95819         1.97645         1.13461
   N       -4.13585         1.17975         1.17851
   C       -7.18559         2.53786         1.76715
   N       -8.14611         2.21811         2.30507
   C       -8.21289         5.39885         0.88994
   C       -8.66677         6.64983         0.55120
   S       -7.46186         7.60951        -0.28016
   C       -9.98457         7.21540         0.77310
   C      -10.17026         8.40928         1.48679
   C       -9.07783         9.10020         2.20685
   O       -7.95407         8.72782         2.36362
   S       -9.70811        10.62628         2.89722
   C      -11.36780        10.33727         2.28321
   O      -12.24764        11.13435         2.40725
   C      -11.41494         9.02025         1.60998
   C      -12.57893         8.44921         1.06865
   C      -12.40463         7.20688         0.43016
   C      -11.15155         6.62704         0.26052
   C      -11.16046         5.39021        -0.55665
   O      -10.22682         4.77509        -0.97241
   S      -12.85912         4.93745        -0.90414
   C      -13.52648         6.37216        -0.06130
   O      -14.69733         6.54611         0.08949
   C      -13.87276         9.10010         1.08805
   C      -14.64647         9.34657        -0.02448
   C      -15.82981        10.00800         0.30458
   C      -15.95541        10.23810         1.68592
   S      -14.61681         9.66612         2.56456
   C      -17.17746        10.92588         1.91923
   C      -17.81483        11.12394         0.67986
   C      -16.98727        10.55926        -0.37389
   C      -17.23585        10.58818        -1.71462
   C      -16.34567        10.02317        -2.65198
   N      -15.61791         9.56288        -3.40867
   C      -18.39692        11.19987        -2.23271
   N      -19.34550        11.70403        -2.63365
   C      -18.99601        11.84681         0.78768
   C      -19.26554        12.21459         2.09720
   S      -18.04965        11.60635         3.21084
   C      -20.35924        12.96270         2.59444
   C      -21.17564        13.81405         1.91855
   C      -21.10329        14.43716         0.61057
   C      -19.97004        14.80223        -0.06748
   C      -19.97841        15.53633        -1.27309
   N      -19.92945        16.13637        -2.24953
   C      -18.66008        14.58051         0.40055
   N      -17.57427        14.44973         0.74974
   C      -22.45205        14.87435         0.26813
   C      -23.27465        14.76542         1.41857
   C      -22.49230        14.17873         2.52185
   O      -22.83786        13.98183         3.66272
   C      -24.59274        15.15432         1.41998
   C      -25.12530        15.65965         0.22928
   C      -24.30089        15.74111        -0.92003
   C      -22.96579        15.35680        -0.92025
   S      -25.16578        16.37805        -2.28380
   C      -26.60135        16.53326        -1.30620
   C      -26.44420        16.12522        -0.02400
  Br      -28.17073        17.21678        -2.07002
   H        0.59570         0.41795        -1.55429
   H        3.45922         4.01589        -3.54356
   H        2.71921        -1.28852        -2.23450
   H       -1.24300         6.39003        -2.14400
   H       -2.99218         3.35926        -0.30141
   H       -8.81048         4.67645         1.41514
   H      -14.34599         9.08564        -1.02305
   H      -19.65405        12.07164        -0.03181
   H      -20.62210        12.80349         3.63577
   H      -25.19459        15.07221         2.31131
   H      -22.37722        15.42671        -1.82002
   H      -27.22518        16.15134         0.71373
*
