# ORCA input file
# SCF done       -209.793302902475          0.000511854825
! CAM-B3LYP def2-SVP def2/J RIJCOSX Grid4 TightSCF
%maxcore 5000
%tddft
    Mode sTDDFT
    Ethresh 5.0
    maxcore 5000
end

%pal
  nprocs 6
  end
* xyz 0 1
   C        0.46875         2.46069         1.54959
   C        1.02646         3.13839         0.50208
   F        1.64455         4.30790         0.70962
   C        0.96023         2.61760        -0.80624
   F        1.51783         3.30284        -1.81279
   C        0.33611         1.42609        -1.04900
   C       -0.24705         0.70312         0.00976
   C       -0.18086         1.22868         1.33307
   C       -0.75798         0.52080         2.41181
   C       -1.38035        -0.67651         2.17375
   C       -1.43667        -1.19593         0.85117
   C       -0.89107        -0.53450        -0.21116
   C       -2.13543        -2.49603         0.85660
   O       -2.33614        -3.20251        -0.10669
   C       -2.45294        -2.76847         2.28114
   C       -2.05229        -1.61415         3.06650
   C       -2.32585        -1.39378         4.39113
   C       -3.06822        -2.25721         5.22486
   N       -3.67887        -2.89851         5.95599
   C       -1.92737        -0.23820         5.09621
   N       -1.62442         0.67271         5.72514
   C       -2.86133        -3.95777         2.81850
   C       -3.35798        -5.11246         2.18080
   C       -3.89729        -5.31926         0.91705
   C       -4.30296        -6.63428         0.73119
   C       -4.06554        -7.45067         1.85831
   S       -3.38521        -6.58934         3.15366
   C       -4.46422        -8.77237         1.54583
   C       -4.96481        -8.79824         0.23147
   C       -4.89703        -7.45133        -0.31738
   C       -5.32122        -7.03822        -1.54425
   C       -5.88179        -7.92847        -2.48700
   N       -6.33498        -8.64157        -3.26117
   C       -5.25980        -5.68876        -1.95782
   N       -5.24434        -4.59704        -2.30581
   C       -5.36776       -10.07405        -0.16505
   C       -5.16795       -11.00807         0.83193
   S       -4.48605       -10.30740         2.28652
   C       -5.43433       -12.41660         0.74652
   N       -5.99191       -12.84783        -0.39154
   N       -6.23037       -14.09017        -0.58666
   C       -5.93288       -15.00970         0.33956
   C       -5.37392       -14.64102         1.57882
   C       -5.11836       -13.31143         1.78750
   C       -6.20215       -16.37623        -0.01004
   C       -6.78869       -16.82487        -1.17680
   C       -6.86828       -18.21735        -1.21422
   C       -6.33128       -18.82196        -0.06358
   S       -5.74333       -17.68539         1.06117
   C       -6.41913       -20.22771        -0.20468
   C       -7.02436       -20.51848        -1.44230
   C       -7.33305       -19.26412        -2.11328
   C       -7.93367       -19.10732        -3.32611
   C       -8.35858       -20.21057        -4.09827
   N       -8.71769       -21.10263        -4.72190
   C       -8.18757       -17.83710        -3.88881
   N       -8.40333       -16.81244        -4.35409
   C       -7.14183       -21.88528        -1.67284
   C       -6.59239       -22.64111        -0.64805
   S       -5.98357       -21.62637         0.65823
   C       -6.57332       -24.05384        -0.57908
   C       -5.79753       -24.86893         0.18544
   C       -6.24501       -26.26503         0.45672
   O       -7.12321       -26.86657        -0.11382
   C       -5.43116       -26.71185         1.60617
   C       -5.52389       -27.86857         2.32523
   C       -4.64471       -28.07384         3.41227
   C       -3.68909       -27.06812         3.74013
   C       -2.82118       -27.27637         4.83087
   C       -2.89417       -28.43088         5.55840
   C       -3.83709       -29.42650         5.23132
   C       -4.69484       -29.25281         4.18144
   F       -3.88599       -30.54751         5.96202
   F       -2.06766       -28.62764         6.59305
   C       -3.61115       -25.88337         2.97319
   C       -4.46418       -25.71282         1.91624
   C       -4.57958       -24.63891         0.93402
   C       -3.57641       -23.76757         0.59927
   C       -3.61321       -22.94876        -0.54829
   N       -3.59754       -22.29897        -1.49438
   C       -2.36594       -23.65580         1.31277
   N       -1.37596       -23.51270         1.87533
   H        0.52700         2.87400         2.54441
   H        0.29366         1.04115        -2.05581
   H       -0.68567         0.94146         3.40163
   H       -0.95057        -0.95121        -1.20506
   H       -2.76888        -4.06297         3.89361
   H       -3.97666        -4.53893         0.18341
   H       -5.77967       -10.34695        -1.11919
   H       -5.15708       -15.38834         2.32801
   H       -4.68639       -12.95139         2.70979
   H       -7.12191       -16.14448        -1.93879
   H       -7.56821       -22.33171        -2.55297
   H       -7.33400       -24.55809        -1.16824
   H       -6.25656       -28.61802         2.06753
   H       -2.09066       -26.52661         5.09167
   H       -5.41063       -30.02420         3.94433
   H       -2.88423       -25.13460         3.24522
*
