# ORCA input file
# SCF done       -187.579263962868          0.000860181641
! CAM-B3LYP def2-SVP def2/J RIJCOSX Grid4 TightSCF
%maxcore 5000
%tddft
    Mode sTDDFT
    Ethresh 5.0
    maxcore 5000
end

%pal
  nprocs 6
  end
* xyz 0 1
   C        0.91014         2.29206         4.16057
   C        1.93794         3.19155         4.01005
   C        3.26510         2.95606         4.41876
   N        4.37107         2.82112         4.69699
   C        1.76643         4.48975         3.49625
   N        1.66242         5.56042         3.09340
   C        0.97581         1.05731         4.93515
   C       -0.35290         0.60064         5.17377
   C       -0.60536        -0.52614         5.90072
   C        0.47977        -1.26681         6.42313
   C        1.81073        -0.82108         6.17987
   C        2.04132         0.35559         5.42924
   C        2.88363        -1.57019         6.70314
   C        2.65549        -2.70492         7.43343
   C        1.34484        -3.14316         7.67227
   C        0.28017        -2.43895         7.17815
   C       -1.30232         1.51557         4.51751
   O       -2.51138         1.48668         4.54615
   C       -0.45679         2.48342         3.75460
   C       -1.07992         3.28213         2.83988
   C       -0.61204         4.05027         1.75216
   C        0.52629         3.95842         0.95169
   C        0.56287         4.94602        -0.05786
   S        1.86867         5.27156        -1.19417
   C        2.66332         3.63278        -1.25399
   C        3.06398         3.18100         0.12996
   S        1.63500         2.61667         1.11002
   C       -0.54234         5.77440        -0.05063
   S       -1.64410         5.35354         1.20927
   C       -0.74413         6.91975        -0.90155
   C       -0.97671         8.18452        -0.46164
   C       -0.92644         9.08724        -1.59699
   C       -1.11643        10.47285        -1.56626
   N       -1.32501        11.60233        -1.60035
   C       -0.70265         8.35808        -2.72873
   C       -0.71297         6.95679        -2.37611
   C       -0.89950         5.89931        -3.23037
   C       -1.01460         5.96097        -4.71532
   C       -0.70203         4.71778        -5.19454
   C       -0.55205         3.82283        -4.07832
   C       -0.74082         4.51526        -2.90718
   C       -0.23424         2.46051        -4.16572
   N        0.06399         1.35305        -4.21649
   C       -1.44679         7.05903        -5.50139
   C       -2.27248         8.04174        -5.04946
   C       -2.54432         9.24045        -5.74349
   C       -3.17112        10.35548        -5.17668
   C       -3.12125        11.47032        -6.01805
   S       -3.65863        13.08529        -5.62048
   C       -3.67370        12.96920        -3.80195
   C       -4.60368        11.87722        -3.33189
   S       -3.87536        10.22629        -3.57561
   C       -2.52786        11.19829        -7.26838
   S       -1.98433         9.54430        -7.35801
   C       -2.38248        12.17951        -8.25544
   C       -1.85045        12.09255        -9.51817
   C       -1.72071        13.18479       -10.46330
   C       -2.06140        14.49948       -10.26929
   C       -1.89613        15.50698       -11.24290
   N       -1.78908        16.37512       -11.98684
   C       -2.61457        15.05236        -9.09544
   N       -3.06517        15.59117        -8.18620
   C       -1.13846        12.63984       -11.68765
   C       -0.90731        11.24727       -11.49795
   C       -1.33412        10.86979       -10.14462
   O       -1.26665         9.75624        -9.64981
   C       -0.36564        10.46075       -12.47284
   C       -0.02070        11.04348       -13.71271
   C       -0.24717        12.43548       -13.91312
   C       -0.81139        13.22359       -12.88232
   C        0.10194        13.00703       -15.15318
   C        0.64843        12.24222       -16.14810
   C        0.87035        10.87167       -15.94941
   C        0.54268        10.28484       -14.75709
   H       -1.62021        -0.85121         6.07567
   H        3.05962         0.66640         5.25492
   H        3.89134        -1.22770         6.51842
   H        3.48454        -3.27084         7.83131
   H        1.18258        -4.04120         8.24941
   H       -0.73151        -2.77173         7.35894
   H       -2.16145         3.30375         2.95964
   H        3.54178         3.77351        -1.88355
   H        1.98621         2.92391        -1.73315
   H        3.55729         3.98191         0.68265
   H        3.71851         2.31013         0.08743
   H       -1.10222         8.49315         0.55938
   H       -0.51579         8.75471        -3.70550
   H       -0.66432         4.41774        -6.22477
   H       -0.71200         4.09368        -1.92341
   H       -1.12652         7.08120        -6.53595
   H       -2.71584         7.95890        -4.06489
   H       -4.02385        13.94582        -3.46881
   H       -2.65670        12.80456        -3.44220
   H       -5.56255        11.91574        -3.85040
   H       -4.76633        11.94226        -2.25592
   H       -2.75577        13.14985        -7.94760
   H       -0.20178         9.40742       -12.29989
   H       -0.96942        14.27356       -13.06946
   H       -0.07045        14.06284       -15.30216
   H        0.91282        12.69000       -17.09431
   H        1.30214        10.28308       -16.74503
   H        0.71115         9.22979       -14.59746
*
