# ORCA input file
# SCF done       -200.688355148048          0.000541602954
! CAM-B3LYP def2-SVP def2/J RIJCOSX Grid4 TightSCF
%maxcore 5000
%tddft
    Mode sTDDFT
    Ethresh 5.0
    maxcore 5000
end

%pal
  nprocs 6
  end
* xyz 0 1
   C       -5.05702        -2.87815         5.86605
   O       -5.16539        -4.07210         5.65125
   C       -4.94460        -2.23519         7.18921
   C       -4.86151        -0.84116         7.02324
   C       -4.73747        -0.02859         8.14103
   C       -4.70098        -0.61876         9.39561
   C       -4.78932        -1.99796         9.53472
   C       -4.91260        -2.83296         8.43178
  Br       -4.73583        -2.75767        11.27428
   C       -4.92963        -0.53179         5.59579
   C       -4.96725         0.72938         5.06226
   C       -4.91046         1.91314         5.82896
   N       -4.86779         2.91124         6.39395
   C       -5.09546         1.03794         3.69098
   N       -5.21112         1.37130         2.59814
   C       -4.99862        -1.79383         4.88191
   C       -4.94532        -1.95690         3.52012
   C       -5.00838        -3.12268         2.74343
   C       -4.87102        -3.08683         1.34911
   C       -4.98068        -4.33670         0.77361
   C       -5.22271        -5.34956         1.73604
   S       -5.28191        -4.76413         3.33340
   C       -5.32692        -6.58166         1.05165
   C       -5.15087        -6.36110        -0.32760
   C       -4.92427        -4.94113        -0.54720
   C       -4.69876        -4.31992        -1.74014
   C       -4.66610        -5.03246        -2.95736
   N       -4.63982        -5.61546        -3.94442
   C       -4.47640        -2.92975        -1.83732
   N       -4.29045        -1.80217        -1.92556
   C       -5.23944        -7.52707        -1.08192
   C       -5.48797        -8.63992        -0.29350
   S       -5.60882        -8.22651         1.41418
   C       -5.64115        -9.98804        -0.72456
   C       -5.94562       -11.01351         0.14167
   C       -6.10625       -12.34475        -0.22606
   C       -5.94594       -12.77186        -1.61708
   C       -5.64938       -11.93536        -2.63645
   S       -5.41368       -10.24812        -2.44993
   C       -6.17246       -14.17512        -1.60613
   C       -6.46036       -14.60729        -0.30767
   C       -6.68953       -16.00165        -0.26743
   C       -6.57322       -16.56846        -1.49707
   S       -6.18345       -15.44911        -2.75546
   C       -6.42642       -13.46671         0.57442
   C       -6.66486       -13.40017         1.96053
   C       -6.99186       -14.43699         2.78307
   C       -7.22934       -14.29413         4.16727
   C       -7.19231       -13.14142         4.94782
   C       -7.48880       -13.39773         6.27770
   C       -7.75729       -14.75764         6.53823
   S       -7.64059       -15.71213         5.12311
   C       -8.03585       -14.90701         7.91228
   C       -7.94786       -13.63489         8.52792
   C       -7.59683       -12.65204         7.52409
   C       -7.38517       -11.31640         7.71116
   C       -7.50570       -10.72499         8.98593
   N       -7.61319       -10.26016        10.02877
   C       -7.04214       -10.46095         6.64438
   N       -6.77173        -9.77698         5.76407
   C       -8.17598       -13.67770         9.89423
   C       -8.43675       -14.96482        10.34801
   S       -8.42675       -16.13400         9.02412
   C       -8.74059       -15.40651        11.64798
   C       -8.55534       -14.76521        12.84027
   C       -9.34331       -15.21558        14.01775
   O       -9.99514       -16.22947        14.11103
   C       -9.19678       -14.13305        15.01628
   C       -8.29147       -13.17097        14.53295
   C       -7.76690       -13.62276        13.24415
   C       -6.58654       -13.19398        12.69299
   C       -5.79882       -12.15453        13.23094
   N       -5.11731       -11.32195        13.62950
   C       -5.96576       -13.80509        11.58675
   N       -5.41029       -14.28689        10.70466
   C       -8.02852       -12.03413        15.28163
   C       -8.66215       -11.88260        16.50606
   C       -9.53698       -12.85410        16.97449
   C       -9.82379       -13.99559        16.23718
  Br      -10.36970       -12.60950        18.66421
   H       -4.66547         1.04323         8.05913
   H       -4.60262        -0.00072        10.27474
   H       -4.98022        -3.90512         8.53198
   H       -4.81993        -1.06022         2.92499
   H       -4.69955        -2.16904         0.81468
   H       -5.13469        -7.57885        -2.15066
   H       -6.06635       -10.74184         1.18212
   H       -5.54024       -12.27497        -3.65428
   H       -6.92670       -16.57630         0.60841
   H       -6.69458       -17.60266        -1.75378
   H       -6.58050       -12.41653         2.40047
   H       -7.08404       -15.43466         2.38418
   H       -6.95963       -12.16944         4.55521
   H       -8.20236       -12.81529        10.53513
   H       -9.25840       -16.35812        11.72280
   H       -7.35945       -11.26636        14.92868
   H       -8.47452       -11.00230        17.10144
   H      -10.50769       -14.74895        16.59608
*
