# ORCA input file
# SCF done       -169.125795452241          0.000931911768
! CAM-B3LYP def2-SVP def2/J RIJCOSX Grid4 TightSCF
%maxcore 5000
%tddft
    Mode sTDDFT
    Ethresh 5.0
    maxcore 5000
end

%pal
  nprocs 6
  end
* xyz 0 1
   C        4.74531         5.37145         6.06338
   C        4.17433         6.53527         6.49781
   F        4.06617         6.76692         7.81839
   C        3.69166         7.51086         5.61480
   C        3.79456         7.29409         4.26884
   C        4.37669         6.11259         3.76550
   C        4.85896         5.13150         4.68034
   C        5.44127         3.93515         4.20008
   C        5.54243         3.73395         2.85054
   C        5.07542         4.72579         1.94058
   C        4.49950         5.88402         2.37643
   C        5.34917         4.28581         0.55906
   O        5.04878         4.83900        -0.47354
   C        6.14251         3.03190         0.69924
   C        6.06707         2.60934         2.07945
   C        6.20764         1.32952         2.55150
   C        6.47338         0.21849         1.72699
   N        6.66035        -0.71732         1.08933
   C        6.02587         0.96688         3.90131
   N        5.91135         0.62409         4.99082
   C        6.83654         2.56912        -0.37887
   C        7.93877         1.68845        -0.42023
   C        8.81889         1.33265         0.58926
   C        9.82014         0.48818         0.12948
   C        9.72615         0.17259        -1.23497
   S        8.38777         0.96991        -1.96239
   C       10.72388        -0.69321        -1.68461
   C       11.58997        -1.04408        -0.67128
   S       11.17257        -0.29817         0.86205
   C       12.72181        -1.89624        -0.75617
   C       13.58361        -2.24611         0.26064
   C       14.59178        -3.09971        -0.18876
   C       14.51230        -3.41066        -1.55123
   S       13.16034        -2.63135        -2.29009
   C       15.52309        -4.26085        -2.00146
   C       16.38603        -4.60889        -0.98502
   S       15.94494        -3.87708         0.54974
   C       17.52507        -5.45128        -1.07108
   C       18.38769        -5.80367        -0.05544
   C       19.40053        -6.65010        -0.50806
   C       19.31758        -6.95526        -1.87556
   S       17.96540        -6.17074        -2.61073
   C       20.30685        -7.81822        -2.32742
   C       21.17553        -8.18517        -1.31219
   S       20.75561        -7.42155         0.21618
   C       22.33280        -8.99144        -1.37138
   C       22.70788        -9.89189        -2.32335
   C       24.14505       -10.27251        -2.42717
   O       25.01183       -10.04937        -1.61384
   C       24.28065       -10.91300        -3.74936
   C       25.41085       -11.32910        -4.39174
   C       25.30270       -11.88628        -5.68578
   C       24.01803       -11.99741        -6.29348
   C       23.91878       -12.54204        -7.58841
   C       25.05251       -12.95449        -8.23159
   C       26.32407       -12.85681        -7.65021
   C       26.43852       -12.32932        -6.39411
   F       24.95985       -13.47418        -9.46876
   C       22.86256       -11.56773        -5.59986
   C       22.99229       -11.03964        -4.34430
   C       21.99506       -10.54628        -3.39732
   C       20.66491       -10.87951        -3.41180
   C       19.77837       -10.60265        -2.35241
   N       19.02872       -10.42769        -1.50114
   C       20.04976       -11.60713        -4.45049
   N       19.49733       -12.17597        -5.28041
   H        5.10262         4.64042         6.77178
   H        3.25086         8.40975         6.01578
   H        3.43016         8.03117         3.56922
   H        5.80456         3.21265         4.91385
   H        4.14391         6.61940         1.67039
   H        6.54166         3.00309        -1.32969
   H        8.75954         1.70791         1.59437
   H       10.81947        -1.05284        -2.69266
   H       13.47671        -1.89596         1.27087
   H       15.62983        -4.61140        -3.01160
   H       18.27761        -5.46093         0.95704
   H       20.41824        -8.12758        -3.35048
   H       23.06753        -8.82335        -0.58954
   H       26.37705       -11.23276        -3.91967
   H       22.95543       -12.63613        -8.06484
   H       27.18281       -13.19895        -8.20568
   H       27.40744       -12.24353        -5.92574
   H       21.90358       -11.65670        -6.08550
*
