# ORCA input file
# SCF done       -241.868336549483          0.000992611293
! CAM-B3LYP def2-SVP def2/J RIJCOSX Grid4 TightSCF
%maxcore 5000
%tddft
    Mode sTDDFT
    Ethresh 5.0
    maxcore 5000
end

%pal
  nprocs 6
  end
* xyz 0 1
   C        3.00632        -3.08238        -7.89070
   C        2.62472        -3.60903        -9.09333
   F        1.38305        -4.10830        -9.23350
   C        3.48211        -3.65260       -10.20095
   C        4.74792        -3.15096       -10.07718
   C        5.19413        -2.59702        -8.85993
   C        4.30594        -2.55959        -7.74587
   C        4.72718        -1.99900        -6.51687
   C        5.99542        -1.49728        -6.40803
   C        6.88459        -1.55478        -7.51966
   C        6.50247        -2.08222        -8.71889
   C        8.18991        -0.99151        -7.12669
   O        9.17066        -0.83136        -7.81736
   C        8.07246        -0.70712        -5.66987
   C        6.68335        -0.83604        -5.29992
   C        6.05734        -0.22751        -4.24075
   C        6.70430         0.64311        -3.34248
   N        7.17476         1.39346        -2.61177
   C        4.67550        -0.32747        -3.98317
   N        3.56124        -0.39497        -3.71508
   C        9.21417        -0.46506        -4.96043
   C        9.45120        -0.54709        -3.57507
   C        8.72300        -1.17257        -2.57183
   C        9.30843        -1.04990        -1.31609
   C       10.51318        -0.33866        -1.34540
   S       10.91168         0.16988        -2.93550
   C       11.23094        -0.17448        -0.14014
   C       10.64211        -0.57001         1.05125
   C        9.22304        -1.05425         1.04875
   O        8.80822        -1.61277        -0.19501
   C       11.48295        -0.39902         2.14964
   C       12.71603         0.12178         1.81032
   S       12.84039         0.40758         0.09476
   C       13.80121         0.42222         2.67708
   C       15.04139         0.88254         2.33568
   C       15.89818         1.08309         3.44302
   C       17.22593         1.55776         3.43715
   C       17.85729         1.99349         2.20792
   C       17.31520         2.74777         1.20730
   C       18.22016         2.97902         0.14846
   C       19.44740         2.40774         0.32027
   S       19.50426         1.56587         1.83224
   C       20.62288         2.43569        -0.58587
  Cl       17.79224         3.90874        -1.23721
   C       17.87872         1.58990         4.66332
   C       17.25774         1.22539         5.88417
   C       15.90831         0.81448         5.89828
   C       15.27488         0.72551         4.66498
   S       13.63200         0.20538         4.40815
   C       15.23253         0.52932         7.14729
   C       15.32001         1.22396         8.31992
   C       14.52249         0.66813         9.34337
   C       13.82859        -0.44749         8.97445
   S       14.15046        -0.82583         7.31559
   C       12.90473        -1.27834         9.78661
  Cl       14.44637         1.35376        10.92175
   C       18.14992         1.32064         6.97721
   C       19.39056         1.77923         6.63440
   S       19.52283         2.10662         4.91850
   C       20.50228         2.00015         7.49178
   C       21.73162         2.52346         7.15289
   C       22.59149         2.64086         8.25047
   C       22.02110         2.17902         9.43662
   S       20.40064         1.62892         9.19073
   C       22.80704         2.15384        10.60700
   C       24.06300         2.75861        10.57893
   C       24.49222         3.51562         9.35802
   O       23.85929         3.08671         8.15558
   C       24.74012         2.64354        11.78036
   C       24.02890         1.94498        12.75133
   S       22.48934         1.40157        12.11733
   C       24.40083         1.58616        14.05821
   C       25.39785         2.09082        14.84766
   C       25.90858         1.25812        15.96915
   O       25.41227         0.24161        16.40035
   C       27.16567         1.90453        16.39393
   C       28.08498         1.48093        17.30903
   C       29.24374         2.25864        17.53308
   C       29.42759         3.46472        16.79654
   C       30.58737         4.23189        17.01909
   C       31.50800         3.80596        17.93569
   C       31.34541         2.62396        18.67051
   C       30.22527         1.86688        18.46613
   F       32.61685         4.53796        18.14976
   C       28.45363         3.88266        15.85919
   C       27.33696         3.11644        15.66548
   C       26.17183         3.30637        14.80248
   C       25.78385         4.51121        14.26876
   C       24.53560         4.73744        13.65930
   N       23.52219         4.98142        13.17699
   C       26.55639         5.68704        14.33625
   N       27.15137         6.66954        14.33692
   H        2.31775        -3.06178        -7.06047
   H        3.12553        -4.08004       -11.12465
   H        5.42703        -3.17330       -10.91618
   H        4.03613        -1.98987        -5.68883
   H        7.18980        -2.10640        -9.55117
   H       10.08296        -0.24434        -5.57394
   H        7.82371        -1.73393        -2.74368
   H        8.55102        -0.21529         1.29851
   H        9.07611        -1.84598         1.78809
   H       11.21705        -0.64005         3.16320
   H       15.33511         1.04531         1.31469
   H       16.32557         3.16475         1.23543
   H       20.84719         1.43480        -0.95437
   H       21.50286         2.80416        -0.06062
   H       20.41669         3.08396        -1.43381
   H       15.89221         2.12434         8.44556
   H       12.94199        -0.95869        10.82504
   H       13.18027        -2.32999         9.72610
   H       11.88127        -1.17804         9.42498
   H       17.89830         1.03868         7.98337
   H       21.99613         2.81392         6.15311
   H       25.56543         3.40561         9.18026
   H       24.27319         4.58677         9.50734
   H       25.73517         3.01802        11.94111
   H       23.87809         0.73524        14.48510
   H       27.93156         0.56289        17.85621
   H       30.74348         5.14963        16.47384
   H       32.10565         2.33794        19.37995
   H       30.07762         0.95244        19.02075
   H       28.62266         4.79585        15.31077
*
