# ORCA input file
# SCF done       -176.516031081723          0.000233347260
! CAM-B3LYP def2-SVP def2/J RIJCOSX Grid4 TightSCF
%maxcore 5000
%tddft
    Mode sTDDFT
    Ethresh 5.0
    maxcore 5000
end

%pal
  nprocs 6
  end
* xyz 0 1
   C       -0.44475         3.63055        -9.54607
   C       -0.02453         2.71205        -8.63441
   C       -0.22497         3.16636        -7.31616
   C       -0.80431         4.44409        -7.27296
   S       -1.09626         5.07296        -8.83356
   C       -0.96968         4.82571        -5.91550
   C       -0.49076         3.78380        -5.10374
   C       -0.00950         2.70541        -5.96187
   C        0.52474         1.51768        -5.55084
   C        0.67637         1.19366        -4.18676
   N        0.80405         0.91808        -3.08042
   C        0.96013         0.53486        -6.46337
   N        1.31595        -0.26701        -7.20228
   C       -0.59944         4.04991        -3.74566
   C       -1.16433         5.29708        -3.50831
   S       -1.56173         6.14287        -4.99850
   C       -1.40586         5.85221        -2.23867
   C       -1.10596         5.26110        -1.00127
   C       -1.47191         6.07153         0.11154
   N       -1.25365         5.65356         1.37094
   C       -0.69722         4.47986         1.53282
   C       -0.33076         3.66201         0.41185
   N       -0.53523         4.05671        -0.81894
   C        0.29851         2.32439         0.59715
   C       -0.46205         4.03012         2.93354
   C       -2.06096         7.29033        -0.26250
   S       -2.14024         7.40497        -1.99297
   C       -2.54137         8.28510         0.60472
   C       -2.49148         8.23674         1.99320
   C       -3.06579         9.35888         2.57114
   C       -3.56292        10.28263         1.62457
   S       -3.31078         9.75650         0.01536
   C       -4.13732        11.36824         2.31442
   C       -4.00772        11.13994         3.70278
   C       -3.32642         9.87279         3.90479
   C       -3.00411         9.28706         5.09489
   C       -3.31557         9.88575         6.33363
   N       -3.56671        10.36515         7.34500
   C       -2.34024         8.04429         5.16334
   N       -1.80141         7.03374         5.22840
   C       -4.55963        12.14836         4.47837
   C       -5.11747        13.15566         3.69937
   S       -4.94249        12.84006         1.97480
   C       -5.76870        14.29888         4.19067
   C       -5.98758        14.61858         5.54058
   C       -6.70065        15.83875         5.71905
   N       -7.00153        16.28759         6.95093
   C       -6.61485        15.56527         7.97131
   C       -5.89220        14.33841         7.79134
   N       -5.59380        13.88837         6.59895
   C       -5.44788        13.51979         8.95411
   C       -6.95892        16.07383         9.32868
   C       -7.03060        16.46885         4.50886
   S       -6.44848        15.52893         3.17152
   C       -7.73235        17.67910         4.36279
   C       -8.23158        18.44961         5.40584
   C       -8.87995        19.58607         4.94203
   C       -8.87994        19.69466         3.54126
   S       -8.07688        18.38495         2.78896
   C       -9.56492        20.88682         3.18736
   C       -9.99619        21.52577         4.36032
   C       -9.58529        20.73567         5.50045
   C       -9.80325        20.98982         6.82444
   C      -10.50342        22.13211         7.26387
   N      -11.07328        23.05928         7.62603
   C       -9.34411        20.12704         7.84108
   N       -8.97632        19.43303         8.67733
   C      -10.68797        22.72400         4.09566
   C      -10.76731        22.96746         2.75933
   S      -10.00625        21.75132         1.78237
   H       -0.41594         3.55818       -10.61474
   H        0.40515         1.76268        -8.89727
   H       -0.30092         3.40947        -2.93628
   H        1.23705         2.41926         1.14117
   H        0.48862         1.87504        -0.37391
   H       -0.35772         1.67407         1.17356
   H       -0.80041         4.79855         3.62346
   H        0.59719         3.83818         3.09733
   H       -1.00336         3.10574         3.12972
   H       -2.05217         7.40088         2.50609
   H       -4.58621        12.19484         5.55162
   H       -4.79079        14.10222         9.59821
   H       -4.91735        12.64076         8.59798
   H       -6.30614        13.20749         9.54726
   H       -7.51493        17.00314         9.23795
   H       -6.05346        16.25048         9.90741
   H       -7.56150        15.34292         9.86572
   H       -8.10244        18.15264         6.43030
   H      -11.10383        23.37076         4.84651
   H      -11.23212        23.79855         2.26804
*
