# ORCA input file
# SCF done       -229.491865910702          0.000596570176
! CAM-B3LYP def2-SVP def2/J RIJCOSX Grid4 TightSCF
%maxcore 5000
%tddft
    Mode sTDDFT
    Ethresh 5.0
    maxcore 5000
end

%pal
  nprocs 6
  end
* xyz 0 1
   C        4.69628         5.77006        -6.76851
   C        4.17163         5.96433        -5.54271
   C        4.82805         5.20325        -4.53152
   C        4.53954         5.16008        -3.15798
   C        3.49825         5.97270        -2.55539
   C        2.51534         5.55774        -1.70664
   C        1.67678         6.61279        -1.28570
   C        2.01557         7.83573        -1.78466
   S        3.38554         7.68554        -2.83092
   C        1.37856         9.15216        -1.52840
  Cl        0.32101         6.35520        -0.25643
   C        5.27652         4.26148        -2.39613
   C        6.29816         3.44484        -2.93381
   C        6.63806         3.54069        -4.29669
   C        5.86190         4.40083        -5.06913
   S        6.01794         4.65569        -6.78608
   C        7.75151         2.78576        -4.83175
   C        8.95471         2.54258        -4.22884
   C        9.82432         1.77956        -5.03630
   C        9.30483         1.42815        -6.24842
   S        7.70129         2.05989        -6.41353
   C        9.92951         0.62779        -7.33111
  Cl       11.40899         1.34291        -4.51854
   C        6.82073         2.55290        -1.96393
   C        6.26515         2.69137        -0.72743
   S        5.06492         3.97270        -0.68728
   C        6.54566         1.88791         0.42064
   C        6.02068         1.97717         1.68223
   C        6.53331         0.97980         2.56690
   C        6.22837         0.77456         3.91053
   C        6.84633        -0.26722         4.58519
   C        7.76863        -1.10864         3.93770
   C        8.07956        -0.91184         2.61145
   C        7.46281         0.13065         1.93250
   S        7.69776         0.56989         0.27025
   C        6.55443        -0.49123         5.95117
   N        6.33314        -0.67231         7.06106
   C        5.04614         3.00089         2.07543
   C        5.41216         4.16840         2.61462
   C        4.45858         5.20148         2.90119
   C        3.17148         5.12026         2.52133
   C        2.62990         3.84979         1.88299
   C        3.58088         2.63024         1.96004
   N        3.34047         1.73793         3.07403
   C        2.22742         1.75553         3.65608
   C        1.14537         2.67136         3.25732
   N        1.32317         3.60539         2.43500
   F       -0.05937         2.48746         3.78201
   F        2.01386         0.94330         4.68420
   C        2.28341         6.25990         2.58657
   C        2.64219         7.55926         2.32327
   C        1.54527         8.46605         2.44313
   C        1.52348         9.83844         2.20730
   C        0.32804        10.52466         2.35840
   C       -0.84842         9.85778         2.74750
   C       -0.83570         8.50224         2.98077
   C        0.35783         7.80756         2.82366
   S        0.59936         6.10019         3.01067
   C        0.28492        11.91575         2.11048
   N        0.24981        13.04262         1.90282
   C        3.98831         7.97627         1.95937
   C        4.82804         8.72256         2.71578
   C        6.12966         8.86215         2.15612
   C        7.25064         9.49521         2.71598
   C        7.19481        10.09717         4.03567
   C        6.66076         9.57335         5.17640
   C        6.78628        10.44097         6.28393
   C        7.40274        11.62529         6.00511
   S        7.85488        11.68050         4.33461
   C        7.69288        12.76182         6.91493
  Cl        6.20369        10.01872         7.85011
   C        8.41378         9.49279         1.95196
   C        8.49642         8.89628         0.67246
   C        7.37088         8.27001         0.11217
   C        6.21755         8.24861         0.88425
   S        4.72195         7.45920         0.45319
   C        7.39501         7.78498        -1.26141
   C        6.63801         8.26400        -2.28642
   C        7.02497         7.73928        -3.54033
   C        8.05624         6.84993        -3.48766
   S        8.55745         6.62654        -1.84294
   C        8.78040         6.20414        -4.61117
  Cl        6.29414         8.24808        -5.01131
   C        9.79565         9.05302         0.10450
   C       10.64778         9.70579         0.91949
   S        9.93987        10.18887         2.42083
   H        4.39260         6.21719        -7.69460
   H        3.34396         6.62057        -5.34723
   H        2.36285         4.53111        -1.42892
   H        0.52568         9.02511        -0.86570
   H        1.03986         9.60663        -2.45863
   H        2.08665         9.83610        -1.06097
   H        9.23449         2.92060        -3.26238
   H       10.96189         0.40486        -7.07348
   H        9.90677         1.17374        -8.27308
   H        9.39241        -0.30968        -7.47416
   H        7.55168         1.79624        -2.18397
   H        5.51318         1.41196         4.40576
   H        8.22963        -1.91087         4.49354
   H        8.78554        -1.55066         2.10464
   H        6.45645         4.38952         2.77893
   H        4.82199         6.09465         3.38386
   H        2.45470         4.10003         0.82754
   H        3.44748         2.01069         1.06206
   H        2.42428        10.35516         1.91038
   H       -1.76115        10.42376         2.85574
   H       -1.73310         7.98012         3.27286
   H        4.54089         9.14397         3.66207
   H        6.23120         8.59102         5.24618
   H        7.36568        12.51809         7.92259
   H        7.17467        13.66109         6.58306
   H        8.76066        12.97675         6.93018
   H        5.86846         9.00313        -2.16617
   H        9.12604         5.21150        -4.33534
   H        9.65125         6.80165        -4.88606
   H        8.13292         6.13160        -5.48170
   H       10.06649         8.68725        -0.86842
   H       11.67563         9.95110         0.73684
*
