# ORCA input file
# SCF done       -268.677027444458          0.000924849221
! CAM-B3LYP def2-SVP def2/J RIJCOSX Grid4 TightSCF
%maxcore 5000
%tddft
    Mode sTDDFT
    Ethresh 5.0
    maxcore 5000
end

%pal
  nprocs 6
  end
* xyz 0 1
   C       -3.34300        -1.38042         1.68922
   C       -2.47184        -1.78595         0.74412
   C       -1.22492        -1.09612         0.80271
   C       -0.10468        -1.24748        -0.03422
   C       -0.08602        -2.14896        -1.17009
   C        0.94646        -2.93300        -1.59698
   C        0.64183        -3.64271        -2.77902
   C       -0.60629        -3.40680        -3.27543
   S       -1.44325        -2.28501        -2.25598
   C       -1.25139        -3.97267        -4.48707
  Cl        1.76830        -4.71363        -3.52058
   C        1.00392        -0.46143         0.26584
   C        1.03118         0.47523         1.32760
   C       -0.09949         0.64767         2.14771
   C       -1.19602        -0.16526         1.86781
   S       -2.71426        -0.14703         2.72358
   C       -0.14905         1.63375         3.20807
   C       -0.73997         1.52192         4.43395
   C       -0.64498         2.70582         5.19699
   C       -0.00083         3.73324         4.57222
   S        0.51710         3.23271         2.99874
   C        0.27499         5.10440         5.07010
  Cl       -1.29646         2.82592         6.78673
   C        2.28019         1.14018         1.40865
   C        3.16259         0.77131         0.43900
   S        2.50086        -0.44955        -0.62752
   C        4.48154         1.27211         0.23666
   C        5.36019         0.95322        -0.75440
   C        6.58410         1.66504        -0.68147
   C        7.70346         1.55637        -1.53011
   C        7.66231         0.71819        -2.71118
   C        6.63611         0.57636        -3.60068
   C        6.93483        -0.33593        -4.63565
   C        8.17488        -0.89847        -4.55200
   S        9.01156        -0.28642        -3.16504
   C        8.80472        -1.89885        -5.45040
  Cl        5.81346        -0.69697        -5.89310
   C        8.82284         2.30251        -1.17911
   C        8.86571         3.16023        -0.05331
   C        7.73979         3.28757         0.78308
   C        6.62199         2.53478         0.43511
   S        5.12792         2.47747         1.33033
   C        7.72516         4.12951         1.96237
   C        6.68636         4.87186         2.44607
   C        6.99342         5.51560         3.66436
   C        8.25097         5.27386         4.13280
   S        9.09328         4.22750         3.04007
   C        8.90005         5.77528         5.37045
  Cl        5.85721         6.52030         4.48016
   C       10.10313         3.84483         0.03682
   C       10.98628         3.53595        -0.95305
   S       10.31424         2.36543        -2.07153
   C       12.31709         4.06263        -1.15778
   C       12.97794         3.85242        -2.37524
   C       14.22526         4.39234        -2.57099
   C       14.84389         5.14537        -1.55877
   C       14.20819         5.33845        -0.34108
   C       12.95346         4.79725        -0.14918
   C       16.12266         5.61148        -2.04833
   C       16.29667         5.14393        -3.36259
   C       15.10635         4.31995        -3.79579
   C       14.41168         4.93945        -5.02273
   C       13.97327         6.38024        -4.78934
   C       15.51008         2.86738        -4.11059
   C       16.21276         2.18256        -2.94461
   C       17.42800         5.46406        -4.07051
   C       18.41152         6.28069        -3.48663
   C       18.22661         6.72581        -2.16990
   C       17.09772         6.39633        -1.44923
   C       19.56180         6.63883        -4.27914
   C       20.48354         7.57333        -3.96581
   C       21.58556         7.93699        -4.79063
   C       22.00246         7.40830        -5.99970
   C       23.11946         8.07201        -6.50779
   C       23.56126         9.11660        -5.68151
   S       22.60544         9.27271        -4.27611
   C       24.67835         9.73784        -6.29686
   C       24.94620         9.08314        -7.51041
   C       23.98032         8.01172        -7.68203
   C       23.89158         7.13537        -8.72347
   C       22.89668         6.13716        -8.77887
   N       22.08648         5.32679        -8.82484
   C       24.78546         7.16999        -9.81457
   N       25.50796         7.18848       -10.70491
   C       26.02400         9.64287        -8.20168
   C       26.57081        10.71419        -7.52812
   S       25.74748        11.03435        -6.00584
   C       27.65427        11.54155        -7.93631
   C       28.17054        12.62274        -7.28090
   C       29.23648        13.24125        -7.97745
   C       30.00218        14.35552        -7.64904
   C       30.98910        14.74040        -8.54756
   C       31.16318        13.98457        -9.73552
   N       30.45159        12.92886       -10.06393
   C       29.51842        12.57629        -9.20575
   S       28.47138        11.22022        -9.46282
   S       32.44092        14.61080       -10.74202
   C       32.73204        15.87517        -9.57251
   C       31.91641        15.82429        -8.49311
   F       31.95550        16.68924        -7.47043
   F       33.68910        16.76698        -9.80183
   H       -4.33918        -1.73686         1.86370
   H       -2.69420        -2.55480         0.02819
   H        1.88115        -3.03604        -1.07824
   H       -0.56074        -4.64719        -4.98694
   H       -1.53432        -3.17909        -5.17797
   H       -2.15361        -4.52279        -4.22107
   H       -1.19729         0.62386         4.80476
   H       -0.09246         5.20485         6.08829
   H       -0.21634         5.84730         4.44209
   H        1.34493         5.30951         5.05640
   H        2.53072         1.86543         2.16074
   H        5.14143         0.20981        -1.49892
   H        5.71597         1.12866        -3.55221
   H        8.88263        -2.86594        -4.95297
   H        9.80824        -1.58401        -5.73118
   H        8.20190        -2.01657        -6.34760
   H        5.74449         4.99181         1.94443
   H        8.23555         6.47235         5.87494
   H        9.83573         6.28152         5.13625
   H        9.12516         4.95087         6.04704
   H       10.31034         4.56901         0.80127
   H       12.49013         3.27770        -3.14950
   H       14.68373         5.90439         0.44583
   H       12.45734         4.93561         0.79847
   H       13.54005         4.33169        -5.27374
   H       15.09986         4.90288        -5.86972
   H       13.26678         6.43787        -3.96426
   H       13.49257         6.77391        -5.68188
   H       14.82854         7.00971        -4.55300
   H       16.16965         2.86911        -4.98092
   H       14.61123         2.30533        -4.37221
   H       17.12380         2.71397        -2.67787
   H       16.47603         1.16257        -3.21458
   H       15.56536         2.15098        -2.07108
   H       17.56715         5.10985        -5.08207
   H       18.98601         7.33271        -1.70195
   H       16.97451         6.74871        -0.43601
   H       19.64973         6.11996        -5.22449
   H       20.40139         8.13110        -3.04353
   H       21.51427         6.58164        -6.48096
   H       26.39980         9.30326        -9.14999
   H       27.79940        12.97096        -6.33319
   H       29.83831        14.90396        -6.73408
*
