# ORCA input file
# SCF done       -300.351450426215          0.000712171413
! CAM-B3LYP def2-SVP def2/J RIJCOSX Grid4 TightSCF
%maxcore 5000
%tddft
    Mode sTDDFT
    Ethresh 5.0
    maxcore 5000
end

%pal
  nprocs 6
  end
* xyz 0 1
   C        3.05378         3.05015        -2.23499
   C        4.37490         3.79863        -2.09688
   C        5.14088         3.72721        -0.94135
   C        6.35748         4.38287        -0.87661
   C        6.81408         5.11835        -1.95627
   C        6.04958         5.19586        -3.10751
   C        4.83797         4.53302        -3.18101
   C        2.46408         2.62536        -0.89891
   C        2.18705         3.62784         0.02454
   C        1.60052         3.31409         1.23570
   C        1.28212         1.99883         1.53305
   C        1.53842         1.00369         0.60748
   C        2.11916         1.31353        -0.61152
   C        3.20527         1.92976        -3.23887
   C        2.32026         2.16401        -4.26435
   C        1.63042         3.40141        -3.97885
   C        0.66633         4.02719        -4.72240
   C        0.17441         3.51189        -5.93505
   N       -0.25858         3.13641        -6.92876
   C        0.11366         5.25162        -4.29429
   N       -0.33629         6.24931        -3.95222
   O        2.07847         3.92552        -2.83260
   C        2.09854         1.37373        -5.40124
   N        1.93703         0.69817        -6.31478
   C        4.15199         0.88332        -3.11896
   C        4.37095        -0.13752        -4.01096
   C        5.40275        -1.01668        -3.62935
   C        5.86612        -2.16067        -4.31918
   C        5.22697        -2.64397        -5.52290
   C        5.81391        -3.19667        -6.62787
   C        4.87563        -3.57646        -7.60931
   C        3.57296        -3.34055        -7.27017
   S        3.49113        -2.62578        -5.70066
   C        2.34137        -3.59097        -8.05708
  Cl        5.35026        -4.27868        -9.10722
   C        6.97107        -2.79872        -3.76827
   C        7.59878        -2.38308        -2.56549
   C        7.08820        -1.28599        -1.84051
   C        6.01329        -0.61637        -2.41306
   S        5.24113         0.78903        -1.74536
   C        7.65066        -0.89457        -0.56491
   C        8.07515        -1.70345         0.45048
   C        8.56424        -0.97837         1.55865
   C        8.52652         0.37735         1.40527
   S        7.85900         0.78402        -0.14046
   C        8.95651         1.43292         2.35603
  Cl        9.15452        -1.75750         2.97606
   C        8.72793        -3.17560        -2.25603
   C        8.94624        -4.19080        -3.14663
   S        7.75486        -4.20705        -4.42845
   C        9.99992        -5.14783        -3.12653
   C       11.08537        -5.18021        -2.27193
   C       11.93168        -6.25543        -2.54546
   C       11.47987        -7.05038        -3.61192
   S       10.02289        -6.46905        -4.28179
   C       12.40592        -8.10884        -3.81051
   C       13.44555        -7.97283        -2.87607
   C       13.18254        -6.80587        -2.04902
   C       13.94984        -6.32753        -1.02765
   C       13.58478        -5.18017        -0.29248
   N       13.28633        -4.24741         0.30398
   C       15.15802        -6.94762        -0.64565
   N       16.14075        -7.45186        -0.33701
   C       14.41726        -8.96658        -2.99438
   C       14.12032        -9.86004        -4.00634
   S       12.62014        -9.46416        -4.82497
   C       14.89161       -10.98640        -4.40811
   C       16.12063       -11.35368        -3.93349
   C       16.64359       -12.51575        -4.54503
   C       17.87473       -13.15380        -4.28434
   C       18.84775       -12.63679        -3.34642
   C       19.67512       -13.35154        -2.52561
   C       20.54403       -12.53236        -1.77465
   C       20.40974       -11.19502        -2.01645
   S       19.17080       -10.92959        -3.19291
   C       21.15402       -10.05968        -1.41856
  Cl       21.67265       -13.18188        -0.65066
   C       18.13056       -14.31805        -5.00582
   C       17.22046       -14.86177        -5.94500
   C       15.98453       -14.22868        -6.19980
   C       15.74402       -13.05374        -5.50320
   S       14.30522       -12.08324        -5.63875
   C       15.04633       -14.79467        -7.14706
   C       14.70655       -16.10769        -7.31196
   C       13.77283       -16.30122        -8.35197
   C       13.39530       -15.15683        -8.99254
   S       14.20000       -13.79292        -8.29368
   C       12.44650       -14.99276       -10.12188
  Cl       13.16771       -17.85913        -8.75946
   C       17.74368       -15.99916        -6.59291
   C       19.01187       -16.32903        -6.18948
   S       19.60973       -15.23569        -4.95576
   C       19.81634       -17.38851        -6.68822
   C       21.18407       -17.45907        -6.73091
   C       21.54186       -18.66637        -7.43987
   C       22.78839       -19.13988        -7.74247
   C       23.97441       -18.47375        -7.38207
   N       24.97125       -17.97443        -7.11353
   C       22.93951       -20.35709        -8.43846
   N       23.06252       -21.35367        -8.99196
   O       20.43377       -19.31822        -7.82166
   C       19.27144       -18.67324        -7.28618
   C       18.28692       -18.47718        -8.42703
   C       17.16553       -19.28207        -8.56670
   C       16.29682       -19.08128        -9.62585
   C       16.54212       -18.08224       -10.55125
   C       17.67551       -17.29560       -10.43060
   C       18.54946       -17.49638        -9.37815
   C       18.70742       -19.52425        -6.14632
   C       19.28512       -20.74904        -5.84109
   C       18.78620       -21.51528        -4.80147
   C       17.70998       -21.06719        -4.05740
   C       17.12689       -19.84913        -4.36374
   C       17.62124       -19.08064        -5.40163
   C       22.09223       -16.50154        -6.25164
   N       22.80441       -15.69175        -5.86254
   H        4.79356         3.15683        -0.09367
   H        6.94864         4.31550         0.02383
   H        7.76288         5.63019        -1.90166
   H        6.39646         5.76839        -3.95434
   H        4.24973         4.59637        -4.08558
   H        2.42759         4.65155        -0.21938
   H        1.38851         4.09842         1.94633
   H        0.82562         1.75270         2.47988
   H        1.27889        -0.02132         0.82559
   H        2.29261         0.52507        -1.32888
   H        3.81617        -0.23243        -4.92421
   H        6.87445        -3.29127        -6.76891
   H        2.59732        -4.05967        -9.00388
   H        1.82280        -2.65257        -8.25262
   H        1.65957        -4.24110        -7.50996
   H        8.00180        -2.77512         0.43806
   H        9.44463         0.97660         3.21345
   H        8.09816         2.00711         2.70497
   H        9.65001         2.12214         1.87661
   H        9.36848        -2.98461        -1.41616
   H       11.24995        -4.45134        -1.50051
   H       15.29385        -9.04408        -2.37908
   H       16.63189       -10.80722        -3.16487
   H       19.64846       -14.42001        -2.41968
   H       21.81089       -10.42656        -0.63404
   H       20.46528        -9.32920        -0.99619
   H       21.75625        -9.55535        -2.17427
   H       15.06111       -16.90952        -6.69122
   H       12.95095       -14.56731       -10.98886
   H       11.63453       -14.32141        -9.84514
   H       12.02971       -15.95911       -10.39445
   H       17.22970       -16.50905        -7.38587
   H       16.96845       -20.06476        -7.85020
   H       15.42611       -19.71085        -9.72561
   H       15.85663       -17.92221       -11.36956
   H       17.88278       -16.52430       -11.15687
   H       19.43292       -16.87965        -9.28765
   H       20.11597       -21.11656        -6.42375
   H       19.24447       -22.46656        -4.57795
   H       17.32393       -21.66398        -3.24513
   H       16.28246       -19.49209        -3.79335
   H       17.15625       -18.13465        -5.63087
*
