# ORCA input file
# SCF done       -183.170886961799          0.000496213050
! CAM-B3LYP def2-SVP def2/J RIJCOSX Grid4 TightSCF
%maxcore 5000
%tddft
    Mode sTDDFT
    Ethresh 5.0
    maxcore 5000
end

%pal
  nprocs 6
  end
* xyz 0 1
   C       -8.47218         6.53602         1.17357
   C       -7.16264         6.22811         1.03584
   C       -6.68883         4.93477         0.73452
   C       -7.64086         3.81507         0.65195
   C       -8.98417         3.93148         0.74663
   S       -9.78964         5.42447         1.00295
   C       -6.84464         2.65257         0.45983
   C       -5.50060         3.01124         0.42185
   C       -4.65605         1.89686         0.22790
   C       -5.36868         0.74370         0.12885
   S       -7.08088         0.96022         0.26092
   C       -5.38844         4.44443         0.56810
   C       -4.13460         5.10885         0.51862
   C       -3.91667         6.42744         0.28344
   C       -2.63841         7.03939         0.24811
   C       -1.38316         6.49895         0.47925
   C       -0.36711         7.44377         0.34793
   C       -0.84425         8.72588         0.01480
   S       -2.54657         8.75685        -0.13672
   C        0.25464         9.60518        -0.09038
   C        1.43383         8.88371         0.17617
   C        1.08086         7.50345         0.46139
   C        1.93375         6.48223         0.77383
   C        1.47453         5.17386         1.02522
   N        1.10047         4.10768         1.22431
   C        3.32727         6.67224         0.86676
   N        4.46187         6.82424         0.94713
   C        2.58281         9.66521         0.09771
   C        2.30083        10.98261        -0.22837
   S        0.57081        11.24941        -0.43603
   C        3.21347        12.06315        -0.38802
   C        4.57849        11.89745        -0.31994
   C        5.51787        12.91629        -0.45478
   C        5.09698        14.27699        -0.81619
   C        3.81064        14.67077        -0.92856
   S        2.46914        13.63234        -0.66861
   C        6.30065        15.00934        -1.01256
   C        7.39564        14.17984        -0.78169
   C        8.62240        14.85660        -0.95823
   C        8.42955        16.15374        -1.31423
   S        6.76343        16.60748        -1.44427
   C        6.92879        12.86917        -0.40060
   C        7.80483        11.82280        -0.04525
   C        7.47960        10.67768         0.62364
   C        8.34680         9.61764         0.94001
   S        7.69903         8.30124         1.88855
   C        9.20270         7.41975         1.89915
   C       10.15304         8.13264         1.18670
   C        9.69188         9.36254         0.63696
   C       10.71220        10.01730        -0.08686
   C       11.88831         9.32458        -0.07704
   C       13.15214         9.68786        -0.71197
   O       14.15453         9.01862        -0.68318
   O       13.06729        10.87679        -1.34211
   C       14.25615        11.30415        -1.98976
   S       11.81774         7.82297         0.81444
   C        9.32413         6.17815         2.56338
   C       10.45594         5.38439         2.67369
   C       10.20497         4.22778         3.40902
   C        8.87989         4.13661         3.85987
   S        7.93514         5.47621         3.37824
   C        8.73790         2.92949         4.59689
   C        9.97033         2.26278         4.60984
   C       10.93406         3.04861         3.86738
   C       12.24792         2.75576         3.64158
   C       13.09649         3.60462         2.90080
   N       13.79842         4.28612         2.30253
   C       12.85039         1.58095         4.13668
   N       13.34727         0.62757         4.53678
   C        9.91806         1.05089         5.32658
   C        8.67501         0.82618         5.83194
   S        7.53241         2.07700         5.45388
   H       -8.80666         7.53176         1.41065
   H       -6.44808         7.02092         1.19866
   H       -9.64418         3.08270         0.66276
   H       -3.58361         1.93553         0.16598
   H       -4.99307        -0.25010        -0.01800
   H       -3.27567         4.46204         0.63994
   H       -4.74707         7.08330         0.06820
   H       -1.22439         5.46727         0.73251
   H        3.57420         9.29244         0.27578
   H        4.93379        10.88839        -0.18785
   H        3.53113        15.68071        -1.18339
   H        9.59542        14.41726        -0.83249
   H        9.17507        16.89826        -1.51462
   H        8.84124        11.99183        -0.29792
   H        6.47487        10.55424         1.00014
   H       10.61235        10.94957        -0.60913
   H       14.01978        12.25456        -2.46129
   H       14.56637        10.57039        -2.73660
   H       15.06201        11.42513        -1.26273
   H       11.40189         5.64947         2.23910
   H       10.74808         0.38208         5.46314
   H        8.34276        -0.00878         6.41552
*
