# ORCA input file
# SCF done       -231.113244378978          0.000818417924
! CAM-B3LYP def2-SVP def2/J RIJCOSX Grid4 TightSCF
%maxcore 5000
%tddft
    Mode sTDDFT
    Ethresh 5.0
    maxcore 5000
end

%pal
  nprocs 6
  end
* xyz 0 1
   C        9.34055        -6.30109         1.47398
   S        9.25206        -4.63859         1.85223
   C        8.34992        -4.30861         0.39436
   C        8.16813        -5.47002        -0.33728
   C        8.72949        -6.60363         0.29040
   C        8.65792        -7.97063        -0.30533
   C        7.51903        -8.07626        -1.32514
   C        7.55453        -9.49113        -1.93448
   O        7.93805       -10.43254        -1.29829
   O        7.11548        -9.62175        -3.17970
   C        7.64134        -6.92503        -2.33791
   O        6.72133        -7.03666        -3.41605
   C        7.45160        -5.57068        -1.64425
   C        7.93678        -2.96404         0.17808
   C        7.08443        -2.52449        -0.77075
   C        6.65681        -1.15770        -0.89892
   C        7.50517        -0.04400        -0.72231
   C        8.97479        -0.11997        -0.67028
   O        9.69326        -1.06663        -0.80295
   S        9.64074         1.54301        -0.46905
   C        8.02872         2.31541        -0.59473
   O        7.87818         3.50268        -0.59245
   C        7.00930         1.26264        -0.73590
   C        5.65611         1.55397        -0.95499
   C        4.83415         0.45995        -1.24113
   C        5.31646        -0.85332        -1.22563
   C        4.30429        -1.86612        -1.54796
   O        4.42548        -3.05832        -1.62710
   S        2.73352        -1.05557        -1.85652
   C        3.39437         0.58288        -1.52538
   O        2.71019         1.56261        -1.53894
   C        5.16399         2.93781        -0.91469
   C        4.68978         3.53525        -2.05408
   C        4.30162         4.88686        -2.00788
   C        3.82494         5.73490        -3.00614
   C        3.39947         5.43822        -4.39481
   C        4.42491         4.66506        -5.25559
   N        4.40942         3.22526        -5.05362
   C        2.00976         4.72312        -4.33515
   N        1.31448         4.65242        -5.59073
   C        3.64921         7.03490        -2.39287
   C        3.29235         8.22066        -2.92107
   C        3.21776         9.44967        -2.08482
   C        3.46514         9.23421        -0.62941
   C        3.85801         8.04497        -0.12537
   C        3.99655         6.92589        -0.97470
   C        4.40324         5.61252        -0.75577
   C        4.85986         4.95436         0.40046
   C        5.23464         3.64612         0.31612
   C        1.88694        10.09956        -2.36677
   C        1.75873        11.21517        -3.06788
   C        0.47328        11.80995        -3.43407
   C       -0.43691        11.18290        -4.29202
   C       -0.18985         9.89476        -4.95735
   O        0.77311         9.18047        -4.87929
   S       -1.57938         9.50944        -6.01588
   C       -2.43684        11.05478        -5.64012
   O       -3.45848        11.36350        -6.17463
   C       -1.64406        11.79806        -4.65524
   C       -2.01659        13.06087        -4.17146
   C       -1.10796        13.67627        -3.29630
   C        0.10659        13.07187        -2.95787
   C        0.94443        13.84213        -2.03096
   O        2.02118        13.54733        -1.59453
   S        0.08806        15.35674        -1.60704
   C       -1.36305        14.94269        -2.60176
   O       -2.34290        15.62732        -2.60842
   C       -3.25826        13.70993        -4.54985
   S       -4.78272        13.06500        -4.04093
   C       -5.63436        14.36863        -4.80943
   C       -4.76511        15.22639        -5.44587
   C       -3.41313        14.85624        -5.28684
   C       -2.30910        15.60142        -5.96233
   C       -2.71380        17.06673        -6.16512
   C       -2.79884        17.79202        -4.83484
   O       -3.75997        18.37217        -4.41181
   O       -1.63149        17.75258        -4.18829
   C       -4.04253        17.14104        -6.93805
   O       -3.92600        16.51771        -8.19905
   C       -5.18666        16.45798        -6.18218
   C       -7.06532        14.47393        -4.73032
   C       -7.85902        13.59379        -4.12603
   H        9.84001        -6.97561         2.14082
   H        8.52281        -8.72383         0.47156
   H        9.60323        -8.19859        -0.80828
   H        6.55575        -7.99106        -0.80385
   H        6.88656        -8.75128        -3.57850
   H        8.63029        -6.97004        -2.80885
   H        5.84398        -6.76722        -3.11395
   H        6.37771        -5.42116        -1.46973
   H        7.79086        -4.78166        -2.31955
   H        8.32708        -2.25973         0.90119
   H        6.57980        -3.22189        -1.41496
   H        4.64468         3.00839        -2.99562
   H        3.23600         6.39706        -4.90039
   H        5.42460         5.02266        -4.99374
   H        4.24422         4.93651        -6.31028
   H        3.55505         2.81451        -5.41422
   H        5.19013         2.79983        -5.54020
   H        1.37572         5.27450        -3.63767
   H        2.14916         3.71559        -3.93901
   H        1.86160         4.20088        -6.31308
   H        1.03438         5.57006        -5.91560
   H        3.02498         8.34408        -3.96072
   H        3.99382        10.14046        -2.45197
   H        3.34082        10.10062         0.00168
   H        4.06221         7.93410         0.92931
   H        4.92241         5.48739         1.33696
   H        5.59382         3.12316         1.19041
   H        1.02257         9.56203        -2.00414
   H        2.62985        11.77268        -3.38784
   H       -2.14073        15.15281        -6.94718
   H       -1.37961        15.54093        -5.39396
   H       -1.92574        17.56707        -6.74279
   H       -1.72218        18.15722        -3.31035
   H       -4.30870        18.20204        -7.07135
   H       -3.25739        16.97366        -8.72123
   H       -5.95817        16.21259        -6.91479
   H       -5.59909        17.17120        -5.46510
   H       -7.48501        15.34874        -5.20786
   H       -7.46076        12.71519        -3.64549
   H       -8.92598        13.72418        -4.09408
*
