# ORCA input file
# SCF done       -181.686499806080          0.000612206146
! CAM-B3LYP def2-SVP def2/J RIJCOSX Grid4 TightSCF
%maxcore 5000
%tddft
    Mode sTDDFT
    Ethresh 5.0
    maxcore 5000
end

%pal
  nprocs 6
  end
* xyz 0 1
   C       -2.14411        -5.20528        -8.19265
   C       -2.44810        -6.23166        -7.30538
   C       -2.05081        -6.16580        -5.91960
   N       -2.44282        -7.12547        -5.06750
   C       -3.10814        -8.15733        -5.52342
   C       -3.41861        -8.26898        -6.92288
   N       -3.12140        -7.31237        -7.75935
   C       -4.09757        -9.42515        -7.38711
   N       -4.64466       -10.37779        -7.71032
   C       -3.49561        -9.16088        -4.60129
   N       -3.78267        -9.98688        -3.85997
   C       -1.29765        -5.08364        -5.41214
   C       -1.03842        -4.03329        -6.30764
   C       -1.45608        -4.10541        -7.69490
   N       -1.08226        -3.01277        -8.37561
   S       -0.30556        -2.02578        -7.39020
   N       -0.38073        -2.89836        -6.04940
   C       -0.88851        -5.06301        -4.04039
   C       -0.80071        -3.87191        -3.18952
   N       -0.63919        -4.13520        -1.92698
   C       -0.57166        -5.49318        -1.83376
   C       -0.65680        -6.10564        -3.17482
   C       -0.54192        -7.53844        -3.06889
   S       -0.20966        -8.57917        -4.29926
   C       -0.64665        -7.79419        -1.65859
   C       -0.61031        -6.50961        -0.91976
   N       -0.79262        -6.72381         0.41325
   C       -1.03505        -7.99515         0.53455
   C       -0.99997        -8.74277        -0.72855
   C       -1.32169       -10.13170        -0.91170
   C       -2.35750       -10.74066        -0.15839
   O       -3.00103        -9.95275         0.73557
   C       -4.08658       -10.48598         1.45850
   C       -2.66895       -12.06134        -0.40997
   C       -1.97753       -12.83554        -1.35216
   C       -0.95014       -12.21404        -2.11618
   C       -0.65823       -10.87899        -1.88145
   O       -0.33410       -12.95757        -3.04642
   C        0.64356       -12.37841        -3.89750
   C        1.07997       -13.45781        -4.87505
   C       -2.35732       -14.21085        -1.48530
   C       -1.62386       -15.20552        -2.04466
   C       -2.02867       -16.56106        -2.09162
   C       -3.36057       -17.13421        -1.83862
   N       -3.41833       -18.42885        -1.92544
   C       -2.14604       -18.83608        -2.22353
   C       -1.25560       -17.67243        -2.35899
   C        0.07657       -18.10866        -2.64321
   S        1.36688       -17.19783        -3.10919
   C        0.00983       -19.54887        -2.57339
   C       -1.39417       -19.96802        -2.38944
   N       -1.48981       -21.32872        -2.39545
   C       -0.27931       -21.76899        -2.56281
   C        0.73687       -20.71181        -2.65197
   C        2.15181       -20.92418        -2.69009
   C        3.04442       -20.01346        -2.08327
   C        4.47341       -20.21066        -2.13279
   N        5.29962       -19.30699        -1.56040
   C        4.77812       -18.28561        -0.93694
   C        3.35455       -18.13795        -0.80964
   N        2.53520       -18.98035        -1.39015
   C        2.80760       -17.07052        -0.05634
   N        2.38274       -16.19410         0.54743
   C        5.62885       -17.31924        -0.34011
   N        6.27491       -16.51286         0.15348
   C        5.03166       -21.31816        -2.76197
   C        4.16476       -22.24656        -3.32370
   C        2.72734       -22.06265        -3.28099
   N        2.08501       -23.06666        -3.88621
   S        3.16251       -24.11727        -4.43487
   N        4.49590       -23.38102        -3.95651
   H       -2.42537        -5.27620        -9.22954
   H       -0.87192        -2.86083        -3.54768
   H       -1.20505        -8.43167         1.50184
   H       -4.44568        -9.67203         2.08610
   H       -3.77493       -11.32199         2.09221
   H       -4.88965       -10.80926         0.79004
   H       -3.45896       -12.54377         0.14362
   H        0.11966       -10.38916        -2.44213
   H        1.49940       -12.03464        -3.30233
   H        0.21557       -11.52203        -4.43317
   H        1.48779       -14.30955        -4.33663
   H        1.83992       -13.06300        -5.54259
   H        0.22974       -13.79353        -5.46254
   H       -3.30248       -14.46754        -1.02215
   H       -0.63886       -14.99933        -2.43382
   H       -4.24962       -16.57036        -1.61560
   H       -0.06871       -22.82189        -2.61226
   H        6.10064       -21.43812        -2.80946
*
