# ORCA input file
# SCF done       -186.598684064984          0.000679186182
! CAM-B3LYP def2-SVP def2/J RIJCOSX Grid4 TightSCF
%maxcore 5000
%tddft
    Mode sTDDFT
    Ethresh 5.0
    maxcore 5000
end

%pal
  nprocs 6
  end
* xyz 0 1
   C        2.90926        -2.38636         9.27079
   S        3.45169        -2.32882         7.63166
   C        2.91331        -3.96463         7.25740
   C        2.34642        -4.47514         8.39943
   C        2.34740        -3.59702         9.51129
   O        1.75890        -4.24787        10.55072
   C        1.41341        -5.47520        10.08848
   S        0.68370        -6.60208        10.97650
   O        1.75980        -5.63452         8.78889
   C        3.07532        -4.57244         5.98877
   C        3.67077        -3.97637         4.92818
   C        3.82059        -4.63870         3.68052
   N        3.36263        -5.86989         3.48867
   C        3.69361        -6.19357         2.22541
   C        4.42192        -5.10338         1.56291
   C        4.77831        -5.48899         0.19032
   O        5.39497        -4.85394        -0.64274
   C        4.20917        -6.84326         0.07251
   C        3.55804        -7.23619         1.33609
   N        3.02938        -8.47914         1.23706
   C        3.30662        -8.87236         0.01608
   C        4.04004        -7.89937        -0.76584
   C        4.49995        -4.08485         2.48516
   C        5.06724        -2.78387         2.38691
   C        5.74817        -2.37387         1.29138
   C        6.34937        -1.08843         1.07427
   C        7.16150        -0.93633        -0.03652
   C        7.77995         0.29442        -0.30768
   C        8.63839         0.70173        -1.33157
   C        9.17853        -0.09051        -2.46767
   C       10.03852        -1.28738        -1.97650
   N       11.21450        -0.91383        -1.22985
   C        8.05181        -0.56890        -3.40260
   N        7.42673         0.59237        -4.01114
   C        8.93785         2.09269        -1.09288
   C        9.69096         2.96768        -1.78639
   C        9.85576         4.37724        -1.33254
   C        9.04172         4.75076        -0.13855
   C        8.29593         3.86066         0.54743
   C        8.21740         2.51867         0.11532
   C        7.52834         1.41493         0.58772
   C        6.69074         1.23972         1.71103
   C        6.12853         0.02549         1.94616
   C       11.31333         4.56623        -0.98248
   C       12.21309         5.10756        -1.80821
   C       13.60228         5.29670        -1.49519
   N       14.52589         5.13719        -2.42601
   C       15.71043         5.34996        -1.81488
   C       15.52362         5.69922        -0.40074
   C       16.82162         5.95142         0.24469
   O       17.04278         6.26602         1.39627
   C       17.77636         5.72690        -0.85299
   C       17.05793         5.36185        -2.09204
   N       17.92876         5.16677        -3.10936
   C       19.11553         5.38537        -2.59195
   C       19.09281         5.74318        -1.19037
   C       14.16593         5.68379        -0.18230
   C       13.40964         6.06209         0.96091
   C       13.96786         6.44550         2.13402
   C       13.18306         6.85653         3.24279
   S       13.89410         7.48171         4.71645
   C       12.36140         7.76239         5.51372
   C       11.36951         7.37150         4.64881
   C       11.81674         6.87975         3.40905
   O       10.71483         6.52811         2.67935
   C        9.64480         6.79644         3.45816
   S        8.11735         6.52520         3.00983
   O       10.00385         7.31137         4.65000
   C       12.28299         8.31623         6.83427
   C       11.13319         8.56161         7.46061
   H        3.04028        -1.54716         9.92056
   H        2.69788        -5.58000         5.87718
   H        4.05638        -2.97101         5.02883
   H        2.99377        -9.84384        -0.32530
   H        4.35974        -8.02731        -1.78129
   H        4.93862        -2.12928         3.23741
   H        5.87413        -3.08244         0.48276
   H        7.31469        -1.78419        -0.68696
   H        9.82490         0.55894        -3.06781
   H       10.36520        -1.85966        -2.84842
   H        9.43801        -1.94149        -1.34269
   H       11.83351        -0.33478        -1.78603
   H       10.96436        -0.40116        -0.39153
   H        7.34973        -1.20299        -2.84209
   H        8.48803        -1.17037        -4.20452
   H        6.93664         1.13572        -3.30739
   H        6.75447         0.30929        -4.71459
   H       10.22894         2.68845        -2.68140
   H        9.62072         5.04346        -2.17303
   H        9.10882         5.77767         0.18495
   H        7.73727         4.17464         1.41626
   H        6.50643         2.07570         2.36952
   H        5.48192        -0.10561         2.79966
   H       11.59799         4.18391        -0.01266
   H       11.93577         5.37663        -2.81975
   H       19.99762         5.29266        -3.20148
   H       19.95180         5.96344        -0.58783
   H       12.33372         6.07907         0.85589
   H       15.04208         6.46165         2.25755
   H       13.23381         8.53010         7.30112
   H       10.18321         8.34942         7.00039
   H       11.11453         8.97814         8.45142
*
