# ORCA input file
# SCF done       -184.986227878299          0.000719461895
! CAM-B3LYP def2-SVP def2/J RIJCOSX Grid4 TightSCF
%maxcore 5000
%tddft
    Mode sTDDFT
    Ethresh 5.0
    maxcore 5000
end

%pal
  nprocs 6
  end
* xyz 0 1
   C       10.86162        -9.44153        -3.58046
   S        9.65500       -10.02111        -2.51370
   C        8.93699        -8.43679        -2.34404
   C        9.63168        -7.52799        -3.12456
   C       10.72797        -8.10364        -3.81092
   S       11.72216        -7.03916        -4.76806
   C       10.83302        -5.56489        -4.38054
   O       11.14914        -4.47760        -4.75677
   S        9.37960        -5.83165        -3.38116
   C        7.86834        -8.23690        -1.43754
   C        7.34804        -7.02095        -1.13400
   C        6.37809        -6.82470        -0.12231
   N        5.76447        -7.82715         0.49530
   C        4.98262        -7.25812         1.42980
   C        5.11852        -5.79257         1.42895
   C        4.29430        -5.20268         2.49303
   O        4.20441        -4.03684         2.82408
   C        3.63217        -6.37877         3.08269
   C        4.08577        -7.61209         2.41260
   N        3.48586        -8.69927         2.95336
   C        2.70089        -8.22546         3.89278
   C        2.74311        -6.78579         4.02727
   C        5.99939        -5.49517         0.41773
   C        6.53655        -4.25456        -0.02162
   C        6.27110        -3.08183         0.59615
   C        6.86065        -1.80839         0.28299
   C        7.61511        -1.57513        -0.84998
   C        8.19263        -0.31232        -1.06301
   C        8.96011         0.17443        -2.12003
   C        9.42717        -0.58002        -3.31354
   C        8.94735         0.07440        -4.62784
   N        8.73148        -0.96092        -5.61590
   C       10.96441        -0.73036        -3.28690
   N       11.43338        -1.39975        -4.48355
   C        9.30917         1.53376        -1.78835
   C       10.01916         2.47226        -2.44831
   C       10.46232         3.70484        -1.75253
   C        9.72610         4.02264        -0.48896
   C        8.92957         3.11280         0.11467
   C        8.72856         1.84630        -0.47093
   C        8.02243         0.72773        -0.06112
   C        7.23206         0.47288         1.08048
   C        6.66175        -0.75020         1.23043
   C       11.85052         3.44820        -1.19290
   C       12.24434         2.24047        -0.75472
   C       13.54491         1.93879        -0.27051
   N       14.55674         2.79785        -0.28150
   C       15.64321         2.09107         0.07452
   C       15.30701         0.67492         0.30413
   C       16.50555        -0.09368         0.68552
   O       16.59059        -1.27446         0.94189
   C       17.55769         0.93773         0.67223
   C       16.99251         2.25029         0.29591
   N       17.95305         3.20337         0.29881
   C       19.05401         2.57900         0.65117
   C       18.87783         1.16727         0.90393
   C       13.95559         0.57237         0.12744
   C       13.11493        -0.57692         0.28285
   C       11.87180        -0.54305         0.80524
   C       11.04597        -1.68812         1.01557
   S        9.77438        -1.62664         2.20383
   C        9.34242        -3.29551         1.97419
   C       10.13631        -3.84484         0.99176
   C       11.09214        -2.94880         0.45865
   S       12.12070        -3.55703        -0.81296
   C       11.43256        -5.18450        -0.85248
   O       11.80448        -6.03459        -1.60889
   S       10.11971        -5.45286         0.31418
   C        8.32534        -3.87725         2.80474
   C        8.01157        -5.16990         2.86035
   H       11.60564       -10.10286        -3.97439
   H        7.48867        -9.10477        -0.91721
   H        7.71950        -6.14078        -1.63605
   H        2.09887        -8.89306         4.48446
   H        2.17893        -6.20754         4.73223
   H        7.21862        -4.28775        -0.85913
   H        5.59143        -3.09170         1.43805
   H        7.74873        -2.34704        -1.59247
   H        8.99049        -1.58299        -3.29804
   H        9.68127         0.83170        -4.94434
   H        7.99100         0.57826        -4.45039
   H        9.61863        -1.41614        -5.80920
   H        8.37683        -0.56563        -6.47947
   H       11.24329        -1.24751        -2.34949
   H       11.42526         0.26153        -3.25841
   H       11.17210        -2.38114        -4.47644
   H       12.44530        -1.36265        -4.53446
   H       10.40150         2.31470        -3.44528
   H       10.49732         4.56126        -2.43043
   H        9.91941         4.98659        -0.04658
   H        8.43423         3.34741         1.04551
   H        7.08393         1.25104         1.81400
   H        6.04355        -0.96224         2.09004
   H       12.51581         4.29382        -1.10826
   H       11.57101         1.39757        -0.81665
   H       19.98202         3.11887         0.72719
   H       19.64872         0.48537         1.20421
   H       13.57085        -1.52606         0.03166
   H       11.46751         0.38507         1.18773
   H        7.81606        -3.17071         3.44553
   H        8.49918        -5.91290         2.25220
   H        7.24984        -5.52441         3.53111
*
