# ORCA input file
# SCF done       -149.863889732526          0.000470643271
! CAM-B3LYP def2-SVP def2/J RIJCOSX Grid4 TightSCF
%maxcore 5000
%tddft
    Mode sTDDFT
    Ethresh 5.0
    maxcore 5000
end

%pal
  nprocs 6
  end
* xyz 0 1
   C        2.41424        -3.77439        -6.11019
   C        1.62942        -3.51796        -5.00941
   C        0.26111        -3.91995        -5.20894
   N       -0.67262        -3.79646        -4.24679
   C       -0.31936        -3.25806        -3.11878
   C        0.98297        -2.77697        -2.83828
   C        1.96535        -2.91614        -3.77308
   C        0.04148        -4.47129        -6.47639
   S        1.52424        -4.50796        -7.36953
   C       -1.14076        -5.06130        -7.00850
   C       -1.18864        -6.09957        -7.89676
   C       -2.55539        -6.53534        -8.01187
   C       -2.99506        -7.55638        -8.86211
   N       -3.35209        -8.40034        -9.55468
   C       -3.34183        -5.79100        -7.15956
   C       -2.51850        -4.80469        -6.54395
   C       -2.93191        -3.71272        -5.81155
   C       -4.17536        -3.57717        -5.02005
   C       -4.22843        -2.27673        -4.57264
   C       -3.07815        -1.57486        -5.05910
   C       -2.28687        -2.44278        -5.78020
   C       -2.80704        -0.22339        -4.81337
   N       -2.58714         0.88301        -4.59658
   C       -5.03514        -4.64900        -4.68729
   C       -6.22490        -4.51287        -4.03384
   C       -7.09791        -5.57210        -3.71373
   N       -8.28917        -5.32863        -3.05903
   C       -8.94596        -6.50550        -2.89176
   C      -10.09480        -7.08537        -2.38903
   C       -9.98801        -8.46715        -2.65540
   N       -8.79360        -8.71215        -3.30217
   C       -8.13686        -7.53307        -3.46286
   C       -6.98816        -6.95415        -3.97193
   C      -10.94929        -9.44475        -2.33872
   C      -10.87238       -10.77646        -2.63682
   C      -11.87696       -11.71879        -2.32908
   C      -12.95224       -11.55919        -1.47905
   C      -13.62153       -12.80986        -1.35425
   C      -14.76684       -13.03881        -0.58273
   N      -15.69580       -13.23649         0.06348
   C      -12.95078       -13.76714        -2.10207
   C      -11.86603       -13.13932        -2.75674
   C      -11.02289       -13.72416        -3.68842
   C      -10.73816       -15.17532        -3.81547
   C       -9.99436       -15.34548        -4.95815
   C       -9.78618       -14.06442        -5.55838
   C      -10.37478       -13.08671        -4.77303
   C       -9.08706       -13.84065        -6.74973
   N       -8.50246       -13.64925        -7.72001
   C      -11.06176       -16.13558        -2.82412
   C      -10.94048       -17.48101        -2.99150
   C      -11.26268       -18.49410        -2.06076
   C      -11.93211       -18.49817        -0.82617
   C      -11.98639       -19.81603        -0.24350
   N      -12.56897       -20.08921         0.94187
   C      -13.12807       -19.09911         1.57136
   C      -13.17459       -17.77502         1.08218
   C      -12.58017       -17.47050        -0.11265
   C      -11.38479       -20.77775        -1.03418
   S      -10.76363       -20.11640        -2.46708
   H        3.45360        -3.55304        -6.24812
   H       -1.09586        -3.18671        -2.36833
   H        1.18087        -2.32043        -1.88149
   H        2.97809        -2.58522        -3.59531
   H       -0.35697        -6.55471        -8.40174
   H       -4.41172        -5.84606        -7.09665
   H       -4.97363        -1.83369        -3.93915
   H       -1.40046        -2.17813        -6.32329
   H       -4.71173        -5.64036        -4.96420
   H       -6.55699        -3.52317        -3.74936
   H       -8.60220        -4.41859        -2.76772
   H      -10.92159        -6.61643        -1.89487
   H       -8.47892        -9.61516        -3.61089
   H       -6.17103        -7.43496        -4.46958
   H      -11.83247        -9.07075        -1.84228
   H       -9.99289       -11.15430        -3.13833
   H      -13.24150       -10.66722        -0.95693
   H      -13.29399       -14.77054        -2.26741
   H       -9.58609       -16.26109        -5.34131
   H      -10.44921       -12.04891        -5.03700
   H      -11.39465       -15.74693        -1.87600
   H      -10.55217       -17.84543        -3.93391
   H      -13.58759       -19.34229         2.52047
   H      -13.68692       -17.01491         1.65048
   H      -12.62924       -16.46410        -0.49529
   H      -11.29210       -21.82306        -0.82127
*
