# ORCA input file
# SCF done       -176.662213050670          0.000480584837
! CAM-B3LYP def2-SVP def2/J RIJCOSX Grid4 TightSCF
%maxcore 5000
%tddft
    Mode sTDDFT
    Ethresh 5.0
    maxcore 5000
end

%pal
  nprocs 6
  end
* xyz 0 1
   C       -2.59858         0.11122         0.51493
   C       -1.23833         0.07076         0.76569
   F       -0.56202         1.21838         0.88569
   C       -0.57156        -1.14174         0.88250
   F        0.75171        -1.15356         1.07454
   C       -1.25647        -2.35321         0.75171
   C       -2.62510        -2.29893         0.47813
   C       -3.28441        -1.08182         0.36945
   F       -4.59788        -1.05504         0.11687
   F       -3.31212        -3.44098         0.34129
   C       -0.56222        -3.62329         0.87765
   C       -0.66039        -4.74259        -0.05650
   N        0.11550        -5.74812         0.23918
   C        0.75633        -5.39254         1.38283
   C        0.33124        -4.05093         1.82166
   C        0.98564        -3.70222         3.06552
   S        0.69988        -2.35585         3.96316
   C        1.86878        -4.81043         3.32684
   C        1.69955        -5.83349         2.27438
   N        2.55095        -6.87672         2.47126
   C        3.25205        -6.55693         3.52036
   C        2.89465        -5.27192         4.12612
   C        3.53560        -4.72269         5.28881
   C        4.85450        -5.04126         5.56043
   C        5.50055        -4.45623         6.65910
   C        6.81846        -4.56970         7.10880
   C        7.85678        -5.46259         6.52567
   C        8.93199        -4.69825         5.71823
   N        9.59073        -3.66855         6.50355
   C        8.49003        -6.37042         7.59696
   N        7.45807        -7.22565         8.15032
   C        6.93287        -3.71220         8.26599
   C        7.99434        -3.36046         9.02049
   C        7.85342        -2.43021        10.17774
   C        6.45930        -1.97172        10.44736
   C        5.42184        -2.27874         9.64512
   C        5.61217        -3.12307         8.52664
   C        4.75817        -3.55905         7.52778
   C        3.40383        -3.27883         7.24550
   C        2.81951        -3.83753         6.15267
   C        8.50687        -3.08953        11.36908
   C        7.83269        -3.82106        12.26127
   C        8.43074        -4.47366        13.38594
   C        9.80053        -4.33705        13.88404
   N       10.06500        -5.05156        14.94300
   C        8.91269        -5.71745        15.23048
   C        7.86133        -5.37254        14.25672
   C        6.63948        -6.06387        14.57382
   S        5.17399        -5.88258        13.85659
   C        6.98236        -6.87012        15.72473
   C        8.37934        -6.60350        16.13173
   N        8.69065        -7.29896        17.25498
   C        7.60877        -7.95445        17.57533
   C        6.49447        -7.74853        16.65436
   C        5.19696        -8.39555        16.73435
   C        4.61164        -8.97377        15.60390
   F        5.28258        -8.97812        14.44745
   C        3.36853        -9.58810        15.67996
   F        2.83150       -10.14395        14.58905
   C        2.67681        -9.64348        16.87728
   C        3.25177        -9.08516        18.00543
   C        4.49739        -8.47525        17.94086
   F        5.02992        -7.93361        19.04462
   F        2.59615        -9.14064        19.17006
   H       -3.11307         1.05384         0.42835
   H       -1.29291        -4.76854        -0.92561
   H        3.99183        -7.23832         3.90355
   H        5.40237        -5.69815         4.90181
   H        7.35855        -6.13318         5.81874
   H        8.44901        -4.29676         4.81367
   H        9.68734        -5.42243         5.40426
   H        9.00823        -2.83900         6.54835
   H       10.46984        -3.40613         6.07351
   H        9.01009        -5.75761         8.34571
   H        9.22983        -7.01590         7.11565
   H        6.76941        -6.67722         8.65497
   H        7.85196        -7.90649         8.78854
   H        8.99111        -3.71367         8.80180
   H        8.45656        -1.53715         9.94436
   H        6.32773        -1.34855        11.31866
   H        4.43283        -1.89680         9.84988
   H        2.84597        -2.61965         7.89299
   H        1.78816        -3.62807         5.92075
   H        9.57935        -2.98051        11.43958
   H        6.76361        -3.95586        12.15512
   H       10.56324        -3.70852        13.45904
   H        7.58618        -8.59358        18.43981
   H        1.71104       -10.11797        16.93170
*
