# ORCA input file
# SCF done       -158.543930685069          0.000274536152
! CAM-B3LYP def2-SVP def2/J RIJCOSX Grid4 TightSCF
%maxcore 5000
%tddft
    Mode sTDDFT
    Ethresh 5.0
    maxcore 5000
end

%pal
  nprocs 6
  end
* xyz 0 1
   C       -2.24430         2.20616         1.54093
   C       -3.39303         1.58953         1.04416
   C       -4.10966         2.19744        -0.01890
   C       -3.69034         3.39547        -0.57314
   C       -2.55093         3.98490        -0.06327
   C       -1.83652         3.39554         0.98176
   S       -5.47982         1.22381        -0.43644
   C       -4.97993         0.08284         0.84723
   N       -3.91874         0.42521         1.48400
   C       -5.73568        -1.09441         1.08650
   C       -6.94321        -1.49664         0.36897
   N       -7.44408        -2.63352         0.76214
   C       -6.62412        -3.06739         1.75937
   C       -5.53667        -2.10869         1.99713
   C       -4.66284        -2.59601         3.03676
   S       -3.28577        -1.87285         3.57042
   C       -5.24285        -3.85567         3.43489
   C       -6.44075        -4.12236         2.61788
   N       -6.98028        -5.33381         2.92777
   C       -6.19380        -5.84132         3.83264
   C       -5.07049        -4.98151         4.21534
   C       -4.09356        -5.32163         5.21045
   C       -3.81133        -6.64813         5.48138
   C       -2.82916        -6.96948         6.43048
   C       -2.35111        -8.20790         6.85812
   C       -2.82009        -9.53539         6.38453
   C       -1.66766       -10.47801         5.98528
   N       -2.09697       -11.30005         4.87081
   C       -3.73560       -10.19315         7.44104
   N       -4.94883        -9.41542         7.58028
   C       -1.36733        -7.93889         7.88266
   C       -0.62800        -8.75807         8.65466
   C        0.30443        -8.23383         9.68808
   C        0.39474        -6.73886         9.74975
   C       -0.35855        -5.93264         8.97880
   C       -1.25905        -6.48068         8.03611
   C       -2.14740        -5.90347         7.14723
   C       -2.47079        -4.55844         6.86180
   C       -3.40856        -4.28339         5.91864
   C       -0.07953        -8.70766        11.07087
   C       -1.31698        -9.10138        11.38661
   C       -1.74192        -9.55744        12.67342
   C       -1.01604        -9.56322        13.94286
   N       -1.68235       -10.07314        14.94280
   C       -2.88746       -10.44791        14.42675
   C       -2.95334       -10.12322        12.99525
   C       -4.21636       -10.53702        12.44461
   S       -4.70698       -10.37581        10.88356
   C       -4.91571       -11.12209        13.55991
   C       -4.07304       -11.04828        14.77119
   N       -4.70933       -11.60786        15.83690
   C       -5.85655       -12.02272        15.38290
   C       -6.06774       -11.76152        13.95585
   C       -7.24202       -12.14776        13.25843
   N       -8.21860       -12.78295        13.81434
   C       -9.22240       -13.04967        12.95009
   C      -10.40677       -13.72483        13.25315
   C      -11.33290       -13.91847        12.25500
   C      -11.10608       -13.45286        10.95731
   C       -9.94459       -12.78360        10.63152
   C       -9.00324       -12.58299        11.62858
   S       -7.46722       -11.79231        11.52987
   H       -1.70609         1.73560         2.34766
   H       -4.24248         3.84960        -1.38109
   H       -2.20595         4.91841        -0.48152
   H       -0.94918         3.88494         1.35408
   H       -7.40860        -0.92913        -0.41824
   H       -6.41775        -6.79991         4.26747
   H       -4.31573        -7.43833         4.94780
   H       -3.42634        -9.38547         5.48734
   H       -1.34676       -11.06670         6.86118
   H       -0.81436        -9.88462         5.64407
   H       -2.86469       -11.90303         5.14535
   H       -1.34020       -11.88489         4.53635
   H       -3.17537       -10.30764         8.38333
   H       -4.02212       -11.18982         7.09462
   H       -4.74079        -8.51182         7.99359
   H       -5.60207        -9.88909         8.19378
   H       -0.69054        -9.83367         8.57600
   H        1.30583        -8.63863         9.47234
   H        1.08228        -6.33558        10.47729
   H       -0.27962        -4.85875         9.06390
   H       -1.97286        -3.76212         7.39400
   H       -3.66555        -3.26201         5.69018
   H        0.70266        -8.67029        11.81503
   H       -2.08648        -9.12068        10.62498
   H       -0.02187        -9.18277        14.09865
   H       -6.57318       -12.51089        16.01785
   H      -10.56812       -14.07850        14.25866
   H      -12.25301       -14.43917        12.47339
   H      -11.85294       -13.62044        10.19611
   H       -9.76676       -12.42298         9.63040
*
