# ORCA input file
# SCF done       -183.195785407802          0.003692982355
! CAM-B3LYP def2-SVP def2/J RIJCOSX Grid4 TightSCF
%maxcore 5000
%tddft
    Mode sTDDFT
    Ethresh 5.0
    maxcore 5000
end

%pal
  nprocs 6
  end
* xyz 0 1
   C       -2.60219         7.97325        -4.67888
   C       -1.99169         8.86236        -5.52102
   C       -0.65857         9.30491        -5.37925
   N        0.41482         9.70404        -5.32112
   C       -2.59241         9.45404        -6.65316
   N       -3.00983         9.96972        -7.58936
   C       -1.99542         7.32023        -3.53158
   C       -2.94109         6.43771        -2.93946
   C       -2.63311         5.63994        -1.86213
   C       -1.35048         5.73888        -1.31958
   C       -0.43056         6.66316        -1.88049
   C       -0.72854         7.44379        -2.99050
   S        1.05488         6.68107        -0.99808
   C        0.46787         5.46506         0.07091
   C       -0.79140         5.05895        -0.20532
   C       -4.22625         6.56558        -3.62759
   O       -5.29872         6.10808        -3.30056
   C       -3.96712         7.46661        -4.79867
   C       -4.89031         7.74093        -5.74505
   C       -6.16337         7.08344        -5.86170
   N       -7.26541         7.76047        -6.08934
   C       -8.26377         6.84419        -6.12615
   C       -7.74047         5.48341        -5.93077
   C       -8.83295         4.49977        -5.97800
   O       -8.77303         3.29572        -5.84943
   C      -10.01700         5.34675        -6.22208
   C       -9.62052         6.77254        -6.29798
   N      -10.70273         7.55580        -6.53886
   C      -11.71180         6.72900        -6.62552
   C      -11.35356         5.33154        -6.44477
   C       -6.38477         5.61261        -5.78785
   C       -5.36046         4.64486        -5.60327
   C       -5.61019         3.35140        -5.30266
   C       -4.58623         2.42425        -4.95742
   S       -4.96626         0.71344        -4.83074
   C       -3.34284         0.33512        -4.38806
   O       -2.96781        -0.90555        -4.07144
   C       -2.54175         1.47094        -4.32231
   C       -3.27913         2.64290        -4.62880
   C       -1.16890         1.51932        -3.92814
   N       -0.69167         2.59348        -3.31536
   C        0.59322         2.31109        -3.01627
   C        0.94667         0.95415        -3.45909
   C        2.37198         0.67071        -3.23083
   O        2.98486        -0.33791        -3.50425
   C        2.84202         1.92588        -2.61918
   C        1.72425         2.88905        -2.49643
   N        2.16401         4.06065        -1.97895
   C        3.45494         3.89735        -1.79956
   C        3.94488         2.59606        -2.19205
   C       -0.15507         0.45406        -4.09167
   C       -0.14944        -0.73330        -4.88463
   C       -0.82169        -0.91633        -6.03697
   C       -0.64440        -2.07162        -6.86043
   C        0.47307        -2.81448        -7.03785
   C        1.87336        -2.62206        -6.68368
   C        2.54593        -1.43667        -6.57005
   C        3.94472        -1.33843        -6.39524
   N        5.07785        -1.19667        -6.29093
   C        1.96294        -0.16153        -6.71075
   N        1.55959         0.90458        -6.84696
   C        2.50642        -3.93461        -6.73438
   C        1.60995        -4.85867        -7.33274
   C        0.34097        -4.18007        -7.63304
   O       -0.63671        -4.62503        -8.18932
   C        1.94438        -6.17517        -7.54801
   C        3.21382        -6.60003        -7.14750
   C        4.09480        -5.67329        -6.53627
   C        3.76071        -4.34150        -6.32188
   S        5.60067        -6.42277        -6.11328
   C        5.05327        -7.93696        -6.74729
   C        3.80120        -7.89241        -7.25242
   H       -3.36778         4.96639        -1.44991
   H        0.01120         8.11586        -3.39160
   H        1.10819         5.11883         0.85879
   H       -1.32059         4.31023         0.35337
   H       -4.71660         8.51813        -6.47883
   H      -12.70542         7.09823        -6.81231
   H      -12.03628         4.50584        -6.48335
   H       -4.33854         4.99264        -5.67159
   H       -6.63001         2.99049        -5.28942
   H       -3.70635        -1.52590        -4.12589
   H       -2.81405         3.60994        -4.59276
   H        4.04778         4.69805        -1.39203
   H        4.96491         2.27062        -2.14067
   H        0.56150        -1.48371        -4.56096
   H       -1.55237        -0.19020        -6.36590
   H       -1.52350        -2.43615        -7.38458
   H        1.24577        -6.85471        -8.01110
   H        4.45535        -3.67317        -5.84029
   H        5.71261        -8.78172        -6.70146
   H        3.29675        -8.73659        -7.68701
*
