# ORCA input file
# SCF done       -211.864228819259          0.000738539765
! CAM-B3LYP def2-SVP def2/J RIJCOSX Grid4 TightSCF
%maxcore 5000
%tddft
    Mode sTDDFT
    Ethresh 5.0
    maxcore 5000
end

%pal
  nprocs 6
  end
* xyz 0 1
   C       -9.62021        -7.28284        12.27066
   C      -10.23460        -6.13408        12.74957
   C      -11.16247        -5.44592        11.98317
   C      -11.51111        -5.89208        10.71619
   C      -10.90311        -7.03518        10.22889
   C       -9.94968        -7.73275        11.00322
   C       -9.46287        -8.87297        10.23169
   C       -8.57926        -9.82466        10.68537
   C       -8.02762        -9.83866        11.98148
   N       -7.53661        -9.91600        13.01728
   C       -8.12169       -10.93570         9.95164
   N       -7.70726       -11.86646         9.41788
   C      -10.06438        -8.77846         8.91869
   C      -11.08655        -7.75726         8.97733
   C      -12.19932        -7.68021         8.17327
   C      -12.50992        -8.64375         7.19428
   N      -12.81850        -9.44241         6.42829
   C      -13.20209        -6.70291         8.30549
   N      -14.03801        -5.91602         8.35054
   C       -9.63068        -9.50069         7.81955
   C       -9.70070        -9.18960         6.46810
   S      -10.11277        -7.62253         5.83061
   C       -9.79728        -8.08359         4.19151
   C       -9.33635        -9.41819         4.12989
   C       -9.28811       -10.04048         5.40928
   C       -8.86139       -11.36827         5.53447
   C       -8.45489       -12.07147         4.42519
   C       -7.99600       -13.48959         4.53164
   C       -8.45939       -11.43565         3.16781
   C       -8.88118       -10.14380         3.01332
   C      -10.02247        -7.09583         3.20834
   C      -10.13509        -7.27790         1.86599
   C      -10.30457        -6.25311         0.88123
   C      -10.36715        -6.62836        -0.44972
   C      -10.44132        -5.65945        -1.46249
   C      -10.45151        -5.78566        -2.84877
   C      -10.50009        -7.06909        -3.60802
   C      -11.60235        -7.06707        -4.68217
   N      -12.81263        -6.45180        -4.16455
   C       -9.12917        -7.40663        -4.22191
   N       -8.19743        -7.73464        -3.15729
   C      -10.44259        -4.44916        -3.38495
   C      -10.31327        -3.98246        -4.64204
   C      -10.41304        -2.52690        -4.94871
   C      -10.46499        -1.63256        -3.75147
   C      -10.50506        -2.10944        -2.49383
   C      -10.49161        -3.50419        -2.25449
   C      -10.46843        -4.25012        -1.09592
   C      -10.45098        -3.89192         0.27337
   C      -10.36854        -4.85779         1.22022
   C      -11.71042        -2.40600        -5.70418
   C      -11.81158        -1.97171        -6.96872
   C      -13.02333        -1.96312        -7.71566
   S      -14.47469        -2.63209        -7.08179
   C      -15.33777        -2.44880        -8.58885
   C      -14.52118        -1.80113        -9.54061
   C      -13.21026        -1.53447        -9.04275
   C      -12.25865        -0.90348        -9.86487
   C      -12.58760        -0.52898       -11.14168
   C      -11.59837         0.13863       -12.04343
   C      -13.89414        -0.77369       -11.61576
   C      -14.84100        -1.39006       -10.84579
   C      -16.58008        -3.08877        -8.64049
   C      -17.37966        -3.36083        -9.72098
   C      -18.51995        -4.17862        -9.66516
   C      -18.84873        -5.12967        -8.72024
   C      -20.20526        -5.59414        -8.47686
   C      -21.30540        -5.43261        -9.28037
   C      -21.32668        -4.80091       -10.54066
   N      -21.43338        -4.30281       -11.57052
   C      -22.58884        -5.92952        -8.97169
   N      -23.65900        -6.30319        -8.78808
   C      -20.19513        -6.27726        -7.18755
   C      -18.86185        -6.35921        -6.72893
   C      -18.56824        -6.94171        -5.50777
   C      -19.61265        -7.44355        -4.74537
   C      -20.92174        -7.37302        -5.19790
   C      -21.22730        -6.79173        -6.42023
   C      -17.99280        -5.78107        -7.74354
   C      -16.65052        -6.05381        -7.86703
   C      -15.87462        -6.70327        -6.89272
   N      -15.16229        -7.18160        -6.12699
   C      -15.87774        -5.75614        -9.00727
   N      -15.19731        -5.59720        -9.91871
   H       -8.90110        -7.80306        12.88163
   H       -9.98126        -5.77260        13.73468
   H      -11.62201        -4.55102        12.37466
   H      -12.23141        -5.34828        10.12647
   H       -9.05953       -10.39320         8.03425
   H       -8.84026       -11.83963         6.50493
   H       -8.69871       -14.14806         4.02119
   H       -7.92237       -13.79864         5.57052
   H       -7.02373       -13.61159         4.05669
   H       -8.10980       -11.98823         2.30793
   H       -8.83527        -9.68075         2.04224
   H      -10.15828        -6.10122         3.61345
   H      -10.10874        -8.28290         1.47168
   H      -10.31777        -7.67496        -0.71453
   H      -10.72618        -7.86716        -2.89393
   H      -11.74852        -8.10661        -5.02187
   H      -11.28744        -6.48519        -5.55246
   H      -13.11636        -6.94337        -3.32925
   H      -13.55959        -6.54022        -4.84899
   H       -8.79680        -6.56616        -4.85395
   H       -9.23068        -8.29071        -4.85806
   H       -8.06245        -6.93016        -2.55285
   H       -7.29537        -7.99629        -3.53882
   H      -10.20047        -4.63547        -5.49432
   H       -9.59237        -2.22114        -5.60993
   H      -10.49338        -0.57308        -3.95525
   H      -10.53868        -1.43492        -1.65036
   H      -10.49249        -2.84868         0.55038
   H      -10.34583        -4.57744         2.26115
   H      -12.58586        -2.73705        -5.16302
   H      -10.92909        -1.63149        -7.49411
   H      -11.26958        -0.70468        -9.48086
   H      -11.39157        -0.49533       -12.90508
   H      -10.66362         0.33499       -11.52498
   H      -11.99872         1.08074       -12.41481
   H      -14.14492        -0.45775       -12.61764
   H      -15.83205        -1.54202       -11.23754
   H      -16.91495        -3.46444        -7.67946
   H      -17.17129        -2.90628       -10.67581
   H      -19.24673        -4.00711       -10.44790
   H      -17.55515        -6.99433        -5.14283
   H      -19.40098        -7.89248        -3.78695
   H      -21.71922        -7.77256        -4.59027
   H      -22.25117        -6.74326        -6.75179
*
