# ORCA input file
# SCF done       -229.774708238012          0.000324195635
! CAM-B3LYP def2-SVP def2/J RIJCOSX Grid4 TightSCF
%maxcore 5000
%tddft
    Mode sTDDFT
    Ethresh 5.0
    maxcore 5000
end

%pal
  nprocs 6
  end
* xyz 0 1
   C       -3.88782         0.37208         3.88241
   C       -3.66830         1.70467         4.19421
   C       -2.35248         2.16664         4.25175
   C       -2.10716         3.52675         4.56547
   N       -1.91677         4.62692         4.81804
   C       -1.26340         1.30906         4.00199
   C        0.05980         1.80745         4.07035
   N        1.13734         2.19200         4.11866
   C       -1.48935        -0.03023         3.68378
   C       -2.79402        -0.47278         3.62889
   C       -3.27262        -1.83670         3.30469
   O       -2.55016        -2.77277         3.04287
   C       -4.75189        -1.76084         3.34056
   C       -5.11766        -0.40744         3.74870
   C       -6.36986         0.07087         4.02773
   C       -6.63708         1.39551         4.44136
   N       -6.92603         2.45388         4.77683
   C       -7.58228        -0.65338         3.97785
   N       -8.61870        -1.14855         3.97922
   C       -5.68649        -2.68897         2.97316
   C       -5.63660        -4.06810         2.60184
   C       -6.84671        -4.62397         2.12404
   C       -6.89881        -5.94405         1.76687
   C       -5.75523        -6.75946         1.88495
   C       -4.56489        -6.23356         2.37065
   C       -4.51045        -4.90196         2.72290
   C       -6.09421        -8.09157         1.44199
   C       -7.44577        -8.10399         1.05215
   C       -8.06834        -6.74074         1.23788
   C       -9.22044        -6.78541         2.26026
   C       -8.79499        -7.34928         3.61065
   C       -8.58415        -6.17217        -0.09723
   C       -7.50616        -6.11620        -1.17293
   C       -8.02700        -9.25497         0.57977
   C       -7.25990       -10.42432         0.49387
   C       -5.91319       -10.39831         0.87842
   C       -5.32556        -9.24376         1.35201
   C       -7.85440       -11.65242        -0.01424
   C       -7.51877       -12.91778         0.50123
   C       -8.04623       -14.14053        -0.06200
   N       -7.58328       -15.32304         0.38467
   C       -6.75043       -15.35878         1.38810
   C       -6.35487       -14.14447         2.05266
   N       -6.72011       -12.98293         1.58423
   C       -5.55047       -14.20372         3.21810
   N       -4.89240       -14.29304         4.15131
   C       -6.25882       -16.61570         1.82031
   N       -5.86841       -17.62605         2.19295
   C       -8.97760       -14.14171        -1.11794
   C       -9.33734       -12.87773        -1.60914
   C       -8.79281       -11.65252        -1.05936
   N       -9.27730       -10.57649        -1.69353
   S      -10.30179       -11.04983        -2.82657
   N      -10.19933       -12.62827        -2.60299
   C       -9.45880       -15.38998        -1.68988
   C       -9.69447       -16.49810        -0.86555
   C       -9.98620       -17.71089        -1.43811
   C      -10.07480       -17.84106        -2.83500
   C       -9.91799       -16.73031        -3.65383
   C       -9.61179       -15.51499        -3.07632
   C      -10.30307       -19.23387        -3.14898
   C      -10.34734       -19.96186        -1.94489
   C      -10.19786       -19.04104        -0.75910
   C       -8.99261       -19.41941         0.12200
   C       -7.66944       -19.39032        -0.63268
   C      -11.48302       -19.03665         0.09351
   C      -12.73177       -18.68881        -0.70787
   C      -10.50117       -21.32473        -1.95969
   C      -10.66913       -21.98464        -3.18746
   C      -10.61908       -21.24727        -4.38082
   C      -10.42488       -19.88316        -4.37088
   C      -10.83087       -23.41199        -3.19550
   C      -11.49478       -24.18455        -4.09119
   C      -11.21252       -25.64320        -4.16395
   O      -10.60684       -26.31206        -3.36253
   C      -11.78469       -26.08016        -5.46044
   C      -11.68254       -27.31082        -6.07369
   C      -12.27911       -27.47429        -7.32506
   C      -12.95777       -26.39974        -7.93213
   C      -13.06550       -25.16099        -7.29762
   C      -12.47844       -25.00627        -6.05337
   C      -12.43956       -23.86134        -5.14340
   C      -13.32035       -22.81473        -5.15257
   C      -13.42218       -21.86894        -4.10955
   N      -13.59257       -21.11145        -3.26512
   C      -14.28625       -22.61183        -6.16091
   N      -15.07213       -22.40336        -6.97017
   C      -13.53632       -26.57708        -9.21368
   N      -14.00117       -26.70812       -10.25151
   C      -12.19529       -28.72136        -7.99036
   N      -12.11602       -29.73643        -8.51416
   H       -4.47298         2.39516         4.38863
   H       -0.66873        -0.70300         3.48556
   H       -6.70009        -2.30471         2.94454
   H       -7.72304        -3.99648         2.04369
   H       -3.69038        -6.85727         2.47462
   H       -3.58754        -4.49524         3.09723
   H      -10.02517        -7.39805         1.84913
   H       -9.60649        -5.77329         2.39574
   H       -8.42667        -8.36757         3.50612
   H       -9.64142        -7.35831         4.29298
   H       -8.00682        -6.74325         4.05195
   H       -8.97592        -5.16841         0.07913
   H       -9.40813        -6.79735        -0.44606
   H       -6.67036        -5.49792        -0.85210
   H       -7.91436        -5.69287        -2.08753
   H       -7.13207        -7.11346        -1.39316
   H       -9.06457        -9.27560         0.28734
   H       -5.31901       -11.29244         0.77931
   H       -4.28513        -9.23872         1.63855
   H       -9.64398       -16.39437         0.20622
   H      -10.00867       -16.81652        -4.72599
   H       -9.44927       -14.64942        -3.69886
   H       -9.15716       -20.41797         0.53092
   H       -8.93838       -18.72250         0.96014
   H       -7.68181       -20.09078        -1.46536
   H       -6.85697       -19.65953         0.03732
   H       -7.47217       -18.39387        -1.02146
   H      -11.35496       -18.31464         0.90295
   H      -11.60419       -20.02403         0.54312
   H      -12.63644       -17.70497        -1.16267
   H      -13.59960       -18.68024        -0.05271
   H      -12.90646       -19.41748        -1.49525
   H      -10.53318       -21.89509        -1.04345
   H      -10.68678       -21.76967        -5.32461
   H      -10.36766       -19.33247        -5.29744
   H      -10.30499       -23.95929        -2.41871
   H      -11.15392       -28.12397        -5.59984
   H      -13.58804       -24.35690        -7.79176
*
