# ORCA input file
# SCF done       -195.460542102170          0.000971989441
! CAM-B3LYP def2-SVP def2/J RIJCOSX Grid4 TightSCF
%maxcore 5000
%tddft
    Mode sTDDFT
    Ethresh 5.0
    maxcore 5000
end

%pal
  nprocs 6
  end
* xyz 0 1
   C       -3.78473        -6.11106        -0.80283
   C       -4.49866        -7.26006        -0.49331
   F       -5.83578        -7.22896        -0.56065
   C       -3.86053        -8.43930        -0.11310
   F       -4.58950        -9.52561         0.17870
   C       -2.47815        -8.49904        -0.03136
   C       -1.76960        -7.35515        -0.33655
   C       -2.40259        -6.16243        -0.72183
   C       -1.37639        -5.14588        -0.96643
   C       -1.62891        -3.87132        -1.41282
   C       -2.91857        -3.37019        -1.68557
   N       -3.93580        -2.89583        -1.92676
   C       -0.66246        -2.88123        -1.68246
   N        0.05496        -2.01747        -1.92964
   C       -0.09386        -5.74574        -0.67768
   C       -0.30334        -7.14726        -0.31719
   O        0.53080        -7.99374        -0.05145
   C        1.10889        -5.06831        -0.69376
   C        2.40833        -5.49450        -0.42846
   S        2.88117        -7.13847        -0.08154
   C        4.53708        -6.66548         0.08273
   C        4.71753        -5.28692        -0.11524
   C        3.52823        -4.63037        -0.41006
   C        3.40329        -3.15659        -0.64425
   C        2.90965        -2.42765         0.60882
   C        6.06560        -4.63989        -0.00345
   C        6.39959        -4.29079         1.44861
   C        5.53521        -7.61171         0.41040
   C        5.33573        -8.95828         0.44513
   C        6.33908        -9.88063         0.81167
   C        6.18594       -11.23074         0.73678
   C        7.15582       -12.17942         1.13708
   N        6.99656       -13.52578         0.87057
   C        8.06066       -14.19970         1.37816
   C        8.63945       -15.45603         1.51568
   C        9.81886       -15.26414         2.24819
   N        9.95783       -13.92293         2.54731
   C        8.90773       -13.24995         2.00912
   C        8.35004       -11.98889         1.84867
   C       10.74378       -16.25704         2.65172
   C       11.74509       -16.08657         3.55347
   C       12.67380       -17.09262         3.91603
   S       12.81725       -18.55551         2.99133
   C       14.07692       -19.15087         4.04198
   C       14.33719       -18.24577         5.07289
   C       13.57164       -17.07689         4.98331
   C       13.64033       -15.94101         5.95910
   C       12.53825       -16.05808         7.01460
   C       15.38156       -18.49675         6.11670
   C       16.76191       -18.05333         5.62501
   C       14.72295       -20.37281         3.78123
   C       14.53376       -21.13075         2.66080
   C       15.25229       -22.30718         2.39814
   C       15.17494       -22.98868         1.21273
   C       15.92835       -24.13866         0.94689
   C       16.04194       -24.80849        -0.24761
   C       16.51743       -26.20772        -0.26634
   O       17.03049       -26.82278         0.64211
   C       16.18499       -26.71251        -1.62141
   C       15.63954       -25.66650        -2.38600
   C       15.21870       -25.90234        -3.68404
   C       15.35776       -27.18706        -4.18924
   C       15.91126       -28.21621        -3.42923
   C       16.33293       -27.98747        -2.12862
   F       16.03395       -29.44052        -3.96036
   F       14.94608       -27.44022        -5.43826
   C       15.66481       -24.43809        -1.58662
   C       15.56755       -23.16778        -2.10014
   C       15.91651       -21.99536        -1.39897
   N       16.24132       -21.00870        -0.90933
   C       15.21511       -22.88323        -3.43438
   N       14.90570       -22.58943        -4.50056
   H       -4.32702        -5.22532        -1.08965
   H       -1.98016        -9.40883         0.26334
   H        1.03667        -4.01707        -0.93364
   H        2.71374        -2.95849        -1.46700
   H        4.37291        -2.74750        -0.92824
   H        1.92900        -2.78946         0.90783
   H        2.83633        -1.36182         0.41049
   H        3.59624        -2.58161         1.43793
   H        6.09456        -3.73063        -0.60461
   H        6.82579        -5.31589        -0.39916
   H        5.67453        -3.58566         1.84662
   H        7.38729        -3.83980         1.50953
   H        6.38388        -5.18183         2.07219
   H        6.52185        -7.23261         0.64024
   H        4.36320        -9.34938         0.17534
   H        7.27945        -9.47655         1.16029
   H        5.26102       -11.62535         0.33416
   H        6.22526       -13.91651         0.35726
   H        8.27833       -16.40051         1.16176
   H       10.74739       -13.51935         3.01902
   H        8.72405       -11.05087         2.20471
   H       10.60450       -17.23375         2.20867
   H       11.84947       -15.14055         4.06698
   H       13.53691       -14.99215         5.42860
   H       14.61353       -15.93378         6.44975
   H       11.55708       -16.04715         6.54507
   H       12.59802       -15.23091         7.71805
   H       12.63940       -16.98976         7.56665
   H       15.40798       -19.55935         6.36365
   H       15.12863       -17.95585         7.02919
   H       17.03560       -18.59282         4.72128
   H       17.51315       -18.24551         6.38724
   H       16.76243       -16.98958         5.39789
   H       15.45197       -20.70407         4.50897
   H       13.83210       -20.78981         1.91062
   H       15.94276       -22.65825         3.15526
   H       14.50027       -22.61863         0.45376
   H       16.42916       -24.61325         1.78450
   H       14.78392       -25.13962        -4.30921
   H       16.76097       -28.78252        -1.53925
*
