# ORCA input file
# SCF done       -181.155939551579          0.000407049975
! CAM-B3LYP def2-SVP def2/J RIJCOSX Grid4 TightSCF
%maxcore 5000
%tddft
    Mode sTDDFT
    Ethresh 5.0
    maxcore 5000
end

%pal
  nprocs 6
  end
* xyz 0 1
   C       -5.72527         1.24349         5.37668
   C       -4.99387         0.86940         6.49449
   C       -4.18970        -0.26063         6.47835
   C       -4.08529        -1.04465         5.33867
   C       -4.80846        -0.67900         4.21639
   C       -5.63836         0.46414         4.23386
   C       -6.29391         0.58936         2.93805
   C       -7.11415         1.61700         2.55543
   C       -7.42173         2.72910         3.36938
   N       -7.71572         3.66238         3.96925
   C       -7.75327         1.75015         1.30440
   N       -8.31230         1.93410         0.31807
   C       -5.92441        -0.59113         2.16293
   C       -4.87325        -1.27227         2.88944
   C       -3.94333        -2.13509         2.35993
   C       -3.83939        -2.44644         0.99008
   N       -3.69828        -2.71350        -0.11763
   C       -2.90894        -2.73628         3.10603
   N       -2.06169        -3.27988         3.65736
   C       -6.54249        -0.96550         0.99462
   C       -6.61046        -2.22906         0.38701
   S       -7.08054        -2.31211        -1.29876
   C       -7.05048        -4.05537        -1.31060
   C       -6.73739        -4.52897        -0.04541
   C       -6.47496        -3.51893         0.89354
   S       -6.09067        -4.01708         2.51905
   C       -6.62570        -5.74393         2.28003
   S       -6.60888        -6.18294         0.51226
   C       -7.30107        -4.74293        -2.51724
   C       -7.26136        -6.09277        -2.67589
   C       -7.48351        -6.75732        -3.89619
   S       -7.77916        -5.92305        -5.41216
   C       -7.90314        -7.39239        -6.34134
   C       -7.72605        -8.49843        -5.49989
   C       -7.49223        -8.12496        -4.14227
   N       -7.33362        -9.25725        -3.41293
   C       -7.45832       -10.32699        -4.26753
   N       -7.33586       -11.63386        -3.76092
   O       -7.12531       -11.73063        -2.56178
   O       -7.44597       -12.56180        -4.53482
   C       -7.70010        -9.90738        -5.55898
   C       -8.13058        -7.37371        -7.72457
   S       -8.21057        -8.84992        -8.66129
   C       -8.46121        -7.97078       -10.15749
   C       -8.47959        -6.60630        -9.90986
   C       -8.30509        -6.27633        -8.55515
   S       -8.31342        -4.58855        -8.12328
   C       -8.99801        -4.04690        -9.72797
   S       -8.69173        -5.29220       -11.02661
   C       -8.67815        -8.66958       -11.35929
   C       -8.69496        -8.10371       -12.59874
   C       -8.98587        -8.79106       -13.79976
   C       -9.77672        -9.89618       -13.96541
   C       -9.72035       -10.78263       -15.12342
   C       -9.14324       -10.52983       -16.33910
   C       -8.51754        -9.32439       -16.72212
   N       -7.99702        -8.37839       -17.11325
   C       -9.13518       -11.44350       -17.41525
   N       -9.09057       -12.13371       -18.33122
   C      -10.40080       -12.01407       -14.74456
   C      -10.99263       -11.83610       -13.47366
   C      -11.68356       -12.87133       -12.86536
   C      -11.78719       -14.08148       -13.53436
   C      -11.21720       -14.25448       -14.78767
   C      -10.51892       -13.22722       -15.40458
   C      -10.74592       -10.46980       -13.03736
   C      -11.49361        -9.79889       -12.10603
   C      -12.49223       -10.40547       -11.31527
   N      -13.30456       -10.83733       -10.62885
   C      -11.43429        -8.41290       -11.85378
   N      -11.48983        -7.29107       -11.61473
   H       -6.34713         2.12256         5.41082
   H       -5.05681         1.46802         7.39028
   H       -3.63613        -0.53623         7.36289
   H       -3.46180        -1.92373         5.33923
   H       -7.11421        -0.20714         0.47592
   H       -7.63832        -5.86008         2.66861
   H       -5.93858        -6.39680         2.81434
   H       -7.52657        -4.12228        -3.37429
   H       -7.04080        -6.72821        -1.82901
   H       -7.14980        -9.35818        -2.42663
   H       -7.83739       -10.54216        -6.40988
   H       -8.52584        -3.11033       -10.01600
   H      -10.07517        -3.91279        -9.62339
   H       -8.81778        -9.73874       -11.25858
   H       -8.37496        -7.07635       -12.70652
   H       -8.48205        -8.40787       -14.67708
   H      -12.12267       -12.75252       -11.88821
   H      -12.31760       -14.89880       -13.07041
   H      -11.31275       -15.20409       -15.29144
   H      -10.07674       -13.38305       -16.37459
*
