# ORCA input file
# SCF done       -202.517828425598          0.000623277443
! CAM-B3LYP def2-SVP def2/J RIJCOSX Grid4 TightSCF
%maxcore 5000
%tddft
    Mode sTDDFT
    Ethresh 5.0
    maxcore 5000
end

%pal
  nprocs 6
  end
* xyz 0 1
   C      -14.00072        -1.37232        -3.33177
   C      -13.44935        -0.28599        -2.69999
   C      -14.20516         0.77800        -2.17151
   N      -14.77634         1.67054        -1.73001
   C      -12.05934        -0.05749        -2.64957
   N      -10.93658         0.18580        -2.65546
   C      -15.40702        -1.52646        -3.69321
   C      -15.50927        -2.48633        -4.71778
   C      -16.72741        -2.84366        -5.25576
   C      -17.87536        -2.23800        -4.75495
   C      -17.77762        -1.28051        -3.73861
   C      -16.54655        -0.91201        -3.20580
  Cl      -19.19947        -0.55476        -3.11727
  Cl      -19.40810        -2.67509        -5.39012
   C      -14.16241        -3.00151        -5.04347
   O      -13.84403        -3.75788        -5.92961
   C      -13.27123        -2.42143        -4.00088
   C      -12.04181        -2.97676        -3.80062
   C      -11.16986        -2.91878        -2.68400
   C       -9.83326        -3.22215        -2.84403
   C       -8.86755        -3.11801        -1.85444
   C       -9.22038        -2.77329        -0.47614
   C      -10.48570        -2.52732        -0.06575
   S      -11.84738        -2.53792        -1.10434
   C       -7.98543        -2.74236         0.22753
   C       -6.92447        -3.00283        -0.65163
   C       -5.67575        -2.97105         0.00951
   C       -5.81586        -2.69399         1.33159
   S       -7.45672        -2.45758         1.83327
   C       -7.46019        -3.23717        -1.95995
   C       -6.81364        -3.43120        -3.19946
   C       -5.50440        -3.31214        -3.53243
   C       -5.11534        -3.39463        -4.90996
   C       -5.91650        -3.00138        -5.96049
   C       -5.67961        -3.34749        -7.37952
   C       -4.49909        -3.99939        -7.79371
   C       -3.50842        -4.31471        -6.93268
   S       -3.55208        -4.09338        -5.22038
   N       -6.66326        -2.96677        -8.16752
   C       -7.55806        -2.31204        -7.37178
   C       -7.12997        -2.28483        -6.02340
   S       -8.17465        -1.33892        -5.03686
   C       -9.26073        -1.09919        -6.40158
   C       -8.78860        -1.67059        -7.56590
   C      -10.46443        -0.39673        -6.12508
   C      -11.61543        -0.49244        -6.82939
   C      -12.82095         0.18493        -6.47201
   C      -14.05070        -0.22756        -6.93525
   C      -15.26603         0.32587        -6.54412
   C      -15.33578         1.44951        -5.61384
   C      -14.25060         2.06047        -5.08523
   S      -12.64178         1.56547        -5.40232
   C      -16.72216         1.72116        -5.45004
   C      -17.48045         0.84597        -6.23081
   C      -18.86369         1.08833        -6.08348
   C      -19.10674         2.10819        -5.21725
   S      -17.68238         2.81581        -4.54268
   C      -16.57990        -0.04613        -6.92485
   C      -16.85425        -1.13147        -7.76317
   C      -18.09131        -1.54697        -8.19000
   C      -18.36632        -2.71670        -8.90726
   C      -17.55144        -3.65136        -9.52367
   C      -18.07937        -4.88285       -10.07235
   C      -19.27367        -5.48032        -9.74967
   C      -19.73076        -6.68366       -10.32325
   N      -20.16405        -7.65259       -10.76212
   C      -20.17332        -5.02515        -8.76352
   N      -20.93715        -4.75227        -7.94909
   C      -17.06299        -5.46345       -10.94677
   C      -15.90014        -4.68514       -10.84236
   C      -16.13607        -3.54925        -9.92032
   O      -15.29731        -2.72035        -9.61956
   C      -14.75198        -4.99276       -11.54099
   C      -14.76910        -6.10372       -12.37561
   C      -15.92539        -6.87950       -12.49229
   C      -17.07849        -6.57018       -11.77763
  Cl      -15.93638        -8.24423       -13.53761
  Cl      -13.36092        -6.51862       -13.26941
   H      -16.78963        -3.58196        -6.03914
   H      -16.50871        -0.17643        -2.41843
   H      -11.70748        -3.61580        -4.61331
   H       -9.53229        -3.49774        -3.84469
   H      -10.72962        -2.28436         0.95657
   H       -4.72322        -3.14801        -0.45437
   H       -5.04178        -2.60983         2.06912
   H       -7.48536        -3.66973        -4.01111
   H       -4.72698        -3.20102        -2.79224
   H       -4.38574        -4.21429        -8.84546
   H       -2.58614        -4.77069        -7.25275
   H       -9.29810        -1.60304        -8.50867
   H      -10.45231         0.19220        -5.21525
   H      -11.68108        -1.16283        -7.67462
   H      -14.05558        -1.06079        -7.62494
   H      -14.32361         2.90345        -4.41651
   H      -19.65241         0.54976        -6.57471
   H      -20.06088         2.49820        -4.92096
   H      -15.99798        -1.70104        -8.08736
   H      -18.95750        -0.96784        -7.90572
   H      -19.42661        -2.92851        -8.99474
   H      -13.86667        -4.38505       -11.44156
   H      -17.95182        -7.19060       -11.89439
*
