# ORCA input file
# SCF done       -229.054334664681          0.000303417074
! CAM-B3LYP def2-SVP def2/J RIJCOSX Grid4 TightSCF
%maxcore 5000
%tddft
    Mode sTDDFT
    Ethresh 5.0
    maxcore 5000
end

%pal
  nprocs 6
  end
* xyz 0 1
   C        7.84407       -14.81894        -5.40562
   C        8.99468       -14.30248        -5.97815
   C        9.01681       -14.09825        -7.35942
   C       10.18143       -13.56379        -7.96402
   N       11.12526       -13.13076        -8.44613
   C        7.90344       -14.40982        -8.16295
   C        7.95567       -14.19292        -9.56052
   N        7.97587       -14.02484       -10.69321
   C        6.74559       -14.92797        -7.58082
   C        6.73532       -15.11932        -6.21604
   C        5.62661       -15.63306        -5.37702
   O        4.55134       -16.00359        -5.79962
   C        6.12073       -15.57416        -3.98872
   C        7.50696       -15.14300        -4.01846
   C        8.39154       -15.09018        -2.97237
   C        9.73360       -14.66838        -3.09264
   N       10.83041       -14.33175        -3.12024
   C        8.13154       -15.47182        -1.63802
   N        8.02148       -15.77516        -0.53577
   C        5.42077       -15.78139        -2.82373
   C        4.10185       -16.19294        -2.58573
   S        3.57633       -16.18213        -0.90788
   C        2.00100       -16.74139        -1.34649
   C        1.90763       -16.93824        -2.72029
   C        3.06866       -16.63543        -3.40663
   C        0.98947       -16.92133        -0.37447
   C        1.07553       -16.69914         0.98736
   C       -0.11692       -16.93107         1.66155
   C       -1.14641       -17.33979         0.83375
   S       -0.61431       -17.44489        -0.81747
   C       -2.48770       -17.61731         1.20013
   S       -3.02543       -17.37830         2.83546
   C       -4.65159       -17.84151         2.42144
   C       -4.73575       -18.17576         1.08188
   C       -3.52911       -18.04901         0.40030
   C       -5.65149       -17.77642         3.42569
   C       -6.97074       -18.03264         3.26099
   C       -7.88944       -17.83522         4.32517
   N       -7.57211       -17.42791         5.51912
   C       -8.65179       -17.24343         6.28227
   C       -9.86444       -17.51097         5.67883
   S       -9.64233       -18.05534         4.07434
   C      -10.93557       -17.36314         6.68341
   C      -10.29153       -16.31245         7.59977
   C       -8.79856       -16.74058         7.70023
   C       -8.64102       -17.88028         8.72617
   C       -7.28237       -18.57114         8.68398
   C       -7.80653       -15.60802         7.99912
   C       -7.73382       -14.51718         6.93647
   N      -11.16992       -16.20009         8.74709
   C      -12.51912       -16.60867         8.37908
   S      -12.63185       -16.71350         6.54045
   C      -11.06676       -15.08246         9.54431
   S      -10.27625       -13.61553         9.02546
   C      -10.58792       -12.86005        10.56561
   C      -11.31096       -13.69442        11.38290
   C      -11.58490       -14.94139        10.80642
   C      -10.04884       -11.57347        10.82809
   C       -9.38184       -10.75320         9.93965
   C       -8.91222        -9.57842        10.51645
   C       -9.20467        -9.47124        11.86176
   S      -10.10567       -10.86179        12.41266
   C       -8.81012        -8.44341        12.74956
   S       -7.86995        -7.09998        12.18396
   C       -7.74692        -6.44831        13.79777
   C       -8.43354        -7.25192        14.69885
   C       -9.02733        -8.36041        14.11699
   C       -6.97085        -5.31273        14.08689
   C       -6.35767        -4.53366        13.14709
   C       -5.55280        -3.41079        13.40506
   C       -4.87259        -3.03949        14.53888
   C       -4.45767        -1.62393        14.67675
   O       -4.50259        -0.76022        13.83048
   C       -4.01773        -1.47786        16.08566
   C       -3.63119        -0.33712        16.75485
   C       -3.28931        -0.44954        18.10428
   C       -3.35208        -1.70019        18.74703
   C       -3.73411        -2.85181        18.05469
   C       -4.06049        -2.73646        16.71515
   C       -4.45860        -3.74410        15.72595
   C       -4.21416        -5.08887        15.86094
   C       -4.35195        -6.02929        14.82180
   N       -4.41383        -6.83933        14.01074
   C       -3.71694        -5.68721        17.03605
   N       -3.33504        -6.22970        17.97306
   C       -3.02579        -1.79398        20.12233
   N       -2.76999        -1.87986        21.23504
   C       -2.88526         0.69703        18.82893
   N       -2.56117         1.63609        19.39882
   H        9.86706       -14.04821        -5.39807
   H        5.88085       -15.16982        -8.17995
   H        5.96357       -15.56674        -1.91060
   H        1.00383       -17.29089        -3.18535
   H        3.17973       -16.72134        -4.47170
   H        1.98500       -16.37249         1.45972
   H       -0.24781       -16.80643         2.72163
   H       -5.64982       -18.49520         0.61580
   H       -3.40059       -18.25627        -0.64764
   H       -5.32659       -17.45806         4.40681
   H       -7.37741       -18.35714         2.31559
   H      -11.06939       -18.32355         7.19844
   H      -10.30692       -15.35753         7.04519
   H       -9.41348       -18.62883         8.54022
   H       -8.81963       -17.46635         9.72091
   H       -7.01816       -18.82878         7.66126
   H       -7.31662       -19.48416         9.27367
   H       -6.50040       -17.93840         9.09366
   H       -6.81716       -16.05834         8.07129
   H       -8.04969       -15.17184         8.96933
   H       -7.44059       -14.94114         5.97965
   H       -6.98769       -13.78191         7.22727
   H       -8.68071       -13.99815         6.81256
   H      -13.26877       -15.90513         8.73995
   H      -12.73407       -17.60813         8.76938
   H      -11.61095       -13.41365        12.37683
   H      -12.11495       -15.73075        11.30768
   H       -9.24182       -11.01809         8.90670
   H       -8.36200        -8.82146         9.98633
   H       -8.48093        -7.02779        15.74985
   H       -9.59107        -9.10258        14.65406
   H       -6.90170        -5.04580        15.13435
   H       -6.55991        -4.75104        12.10584
   H       -5.49013        -2.67801        12.60536
   H       -3.59378         0.61610        16.24983
   H       -3.77363        -3.79274        18.58037
*
