# ORCA input file
# SCF done       -236.495851094626          0.000470398567
! CAM-B3LYP def2-SVP def2/J RIJCOSX Grid4 TightSCF
%maxcore 5000
%tddft
    Mode sTDDFT
    Ethresh 5.0
    maxcore 5000
end

%pal
  nprocs 6
  end
* xyz 0 1
   C       -0.10385        -2.08717         1.42208
   C        0.64256        -1.52655         2.62960
   C        1.83223        -2.10951         3.04990
   C        2.53142        -1.57319         4.11530
   C        2.05206        -0.45215         4.77200
   C        0.86465         0.12557         4.36064
   C        0.16285        -0.40546         3.29192
   C       -0.41920        -3.57127         1.52962
   C       -0.47389        -4.21074         2.75949
   C       -0.81514        -5.55092         2.82794
   C       -1.11731        -6.25555         1.67564
   C       -1.09120        -5.61271         0.44918
   C       -0.75027        -4.27462         0.37561
   C        0.66816        -1.68055         0.18198
   C       -0.10879        -0.79748        -0.51587
   C       -1.36884        -0.65755         0.18070
   C       -2.44967         0.11000        -0.15370
   C       -2.49214         0.92507        -1.29967
   N       -2.57960         1.61151        -2.21440
   C       -3.59414         0.12970         0.66986
   N       -4.52001         0.15451         1.34610
   O       -1.36833        -1.42287         1.28092
   C        0.20184        -0.18530        -1.74145
   N        0.47824         0.28004        -2.75221
   C        2.00937        -2.10535        -0.13438
   C        2.44484        -3.40978         0.15118
   C        3.72729        -3.77473        -0.16730
   C        4.61434        -2.85898        -0.76002
   C        4.19302        -1.56710        -1.04367
   C        2.89759        -1.20335        -0.73736
   C        5.88252        -3.52186        -0.96798
   C        5.77489        -4.84915        -0.51530
   C        4.39493        -5.11242         0.04055
   C        3.67004        -6.22775        -0.73446
   C        3.56802        -5.93868        -2.22714
   C        4.45034        -5.47495         1.53704
   C        5.18168        -4.43071         2.37272
   C        6.84185        -5.70791        -0.59965
   C        8.05693        -5.25300        -1.13393
   C        8.15090        -3.92631        -1.57667
   C        7.07719        -3.06231        -1.50267
   C        9.18532        -6.14985        -1.22017
   N       10.48404        -5.68970        -1.27296
   C       11.32011        -6.76027        -1.33921
   C       12.65904        -7.14597        -1.39031
   C       12.65762        -8.54040        -1.46037
   N       11.35523        -8.99731        -1.45118
   C       10.52356        -7.92635        -1.36381
   C        9.18354        -7.54048        -1.27724
   C       13.79812        -9.38985        -1.52163
   C       13.78961       -10.72061        -1.74575
   C       14.95242       -11.57491        -1.78285
   C       14.84791       -12.83715        -2.38944
   C       15.94338       -13.66231        -2.44789
   C       17.16385       -13.26518        -1.87414
   C       17.27772       -12.02713        -1.25428
   C       16.17958       -11.19567        -1.21841
   C       18.13198       -14.31227        -2.08700
   C       17.51751       -15.35678        -2.80505
   C       16.05705       -15.05034        -3.04251
   C       15.69983       -15.07178        -4.53637
   C       16.51132       -14.06370        -5.34248
   C       15.13317       -15.98110        -2.22158
   C       15.19725       -17.46288        -2.56703
   C       18.24934       -16.44048        -3.21633
   C       19.61168       -16.54030        -2.87181
   C       20.19886       -15.50404        -2.12413
   C       19.47526       -14.39649        -1.74218
   C       20.38802       -17.66718        -3.30624
   C       19.97264       -18.81685        -3.93329
   C       21.14459       -19.57984        -4.30356
   C       21.21692       -20.78049        -4.95677
   C       20.09294       -21.50705        -5.38764
   N       19.21850       -22.14308        -5.77129
   C       22.47201       -21.35588        -5.24299
   N       23.49249       -21.82375        -5.47782
   O       22.25207       -18.92697        -3.93637
   C       21.89999       -17.72997        -3.21206
   C       22.43778       -17.95640        -1.80577
   C       23.79821       -18.21791        -1.67558
   C       24.33909       -18.49070        -0.43337
   C       23.52605       -18.51519         0.68813
   C       22.16899       -18.28205         0.55720
   C       21.62061       -18.01230        -0.68616
   C       22.52474       -16.54407        -3.93843
   C       22.23811       -16.38662        -5.28914
   C       22.77131       -15.32764        -6.00016
   C       23.59168       -14.41045        -5.36660
   C       23.87783       -14.56171        -4.02133
   C       23.34962       -15.62352        -3.30773
   C       18.66565       -19.26338        -4.18203
   N       17.59397       -19.63528        -4.35743
   H        2.21259        -2.98691         2.55155
   H        3.45407        -2.03602         4.43239
   H        2.60051        -0.03415         5.60250
   H        0.47723         0.99506         4.86960
   H       -0.76853         0.04792         2.98859
   H       -0.25151        -3.66392         3.66297
   H       -0.84986        -6.04230         3.78860
   H       -1.38150        -7.30071         1.73282
   H       -1.33827        -6.15116        -0.45330
   H       -0.73045        -3.77844        -0.58510
   H        1.76274        -4.12869         0.57813
   H        4.86288        -0.85286        -1.49686
   H        2.56781        -0.19589        -0.93906
   H        2.66752        -6.34908        -0.31719
   H        4.21016        -7.16455        -0.58297
   H        3.01602        -5.01846        -2.40523
   H        3.05159        -6.75220        -2.73102
   H        4.55769        -5.83441        -2.66619
   H        4.95169        -6.43869         1.64559
   H        3.42790        -5.58867         1.90593
   H        5.16138        -4.71229         3.42311
   H        4.71540        -3.45329         2.26713
   H        6.21967        -4.34768         2.05861
   H        6.76607        -6.72324        -0.24278
   H        9.07412        -3.57548        -2.01459
   H        7.16725        -2.04720        -1.85916
   H       10.75380        -4.72582        -1.18513
   H       13.53176        -6.52392        -1.38766
   H       11.08788        -9.96527        -1.46715
   H        8.31713        -8.17051        -1.28909
   H       14.73982        -8.87537        -1.39322
   H       12.85093       -11.21892        -1.95490
   H       13.90545       -13.13762        -2.82538
   H       18.21096       -11.72127        -0.80504
   H       16.25974       -10.23931        -0.72523
   H       14.63586       -14.85291        -4.64661
   H       15.88057       -16.07184        -4.93146
   H       16.32881       -13.05029        -4.99108
   H       16.23741       -14.11825        -6.39346
   H       17.57632       -14.26917        -5.25415
   H       14.10832       -15.62873        -2.35920
   H       15.38479       -15.85352        -1.16485
   H       14.46800       -18.00159        -1.96598
   H       16.17770       -17.87801        -2.35285
   H       14.96594       -17.64203        -3.61279
   H       17.79709       -17.20377        -3.82538
   H       21.23555       -15.57314        -1.84034
   H       19.95130       -13.60405        -1.18484
   H       24.42299       -18.21633        -2.55608
   H       25.39618       -18.68965        -0.34285
   H       23.94792       -18.72739         1.65894
   H       21.52540       -18.31737         1.42339
   H       20.55663       -17.84797        -0.77015
   H       21.60013       -17.09862        -5.79360
   H       22.54352       -15.22029        -7.04987
   H       24.00789       -13.58227        -5.91993
   H       24.51947       -13.85245        -3.52019
   H       23.58927       -15.73047        -2.25992
*
