# ORCA input file
# SCF done       -189.952866331356          0.000906881794
! CAM-B3LYP def2-SVP def2/J RIJCOSX Grid4 TightSCF
%maxcore 5000
%tddft
    Mode sTDDFT
    Ethresh 5.0
    maxcore 5000
end

%pal
  nprocs 6
  end
* xyz 0 1
   C       -1.74260        -7.43186        -5.94472
   C       -2.86832        -6.67443        -6.23846
   F       -3.40314        -6.76098        -7.46090
   C       -3.45304        -5.82980        -5.29492
   F       -4.53817        -5.11888        -5.62272
   C       -2.92071        -5.72169        -4.02039
   C       -1.80166        -6.47744        -3.73104
   C       -1.20348        -7.32960        -4.67288
   C       -0.05137        -7.97731        -4.04158
   C        0.75897        -8.88902        -4.66709
   C        0.59288        -9.29856        -6.00857
   N        0.52227        -9.67476        -7.09038
   C        1.86309        -9.57022        -4.10984
   N        2.76882       -10.18193        -3.75509
   C        0.03044        -7.49178        -2.67373
   C       -1.05673        -6.54948        -2.46408
   O       -1.33819        -5.89103        -1.46326
   C        1.03290        -7.88586        -1.80437
   C        1.33761        -7.68431        -0.46082
   O        2.50076        -8.31779        -0.06863
   C        2.68516        -8.13290         1.24138
   C        1.64094        -7.35212         1.76637
   C        0.78229        -7.06040         0.68637
   O       -0.32204        -6.35267         0.81261
   C        1.48527        -6.93769         3.17359
   O        2.27076        -7.24548         4.03638
   O        0.40945        -6.19927         3.44549
   C        3.77788        -8.69036         1.93143
   C        4.75590        -9.43441         1.33765
   C        5.82861       -10.03676         2.02231
   N        5.98229        -9.98707         3.39409
   C        7.09127       -10.68936         3.72788
   C        7.86504       -11.11451         4.79713
   C        8.91292       -11.86711         4.23853
   N        8.78193       -11.89328         2.86605
   C        7.67298       -11.19177         2.52355
   C        6.88103       -10.78604         1.46156
   C        9.98211       -12.54872         4.85670
   C       10.17694       -12.69397         6.19661
   C       11.27601       -13.42424         6.69736
   O       12.21186       -13.90900         5.85144
   C       13.12372       -14.62322         6.54156
   C       12.77621       -14.59825         7.90526
   C       11.59972       -13.82304         8.00511
   O       10.92324       -13.53738         9.11105
   C       13.39140       -15.19347         9.07734
   O       12.92387       -15.04928        10.19168
   O       14.49433       -15.90579         8.84761
   C       14.17462       -15.24324         5.84923
   C       14.34746       -15.06435         4.49939
   C       15.34481       -15.71989         3.77535
   C       15.68970       -15.63187         2.44631
   C       16.91695       -16.36504         2.04324
   O       17.55883       -17.12933         2.72827
   C       17.20034       -15.94716         0.65627
   C       16.19509       -15.06368         0.23075
   C       16.27571       -14.50242        -1.03433
   C       17.35085       -14.84971        -1.83979
   C       18.33466       -15.73913        -1.41007
   C       18.26831       -16.29856        -0.14422
   F       19.35210       -16.04871        -2.22233
   F       17.44117       -14.30942        -3.06048
   C       15.19293       -14.91287         1.29956
   C       13.99730       -14.26357         1.09987
   C       12.87888       -14.12592         1.94137
   N       11.87395       -13.92493         2.46590
   C       13.63775       -13.61624        -0.10534
   N       13.24372       -13.05639        -1.02739
   H       -1.33322        -8.06698        -6.71248
   H       -3.36812        -5.07150        -3.28573
   H        1.78399        -8.52914        -2.24784
   H       -0.75553        -6.15269        -0.08578
   H       -0.13442        -6.03555         2.65354
   H        3.77736        -8.47915         2.98955
   H        4.71938        -9.59064         0.26857
   H        5.35374        -9.51725         4.02285
   H        7.72001       -10.92097         5.83995
   H        9.41294       -12.38385         2.25338
   H        7.01111       -10.98204         0.41646
   H       10.69421       -13.01640         4.18865
   H        9.49555       -12.29247         6.92917
   H       11.38803       -13.96611         9.86262
   H       14.83601       -16.26762         9.68128
   H       14.83842       -15.87413         6.42014
   H       13.67900       -14.38519         3.99789
   H       15.98903       -16.38966         4.33864
   H       15.55285       -13.80549        -1.42360
   H       19.02739       -16.98241         0.20042
*
