# ORCA input file
# SCF done       -201.063414605470          0.000882066026
! CAM-B3LYP def2-SVP def2/J RIJCOSX Grid4 TightSCF
%maxcore 5000
%tddft
    Mode sTDDFT
    Ethresh 5.0
    maxcore 5000
end

%pal
  nprocs 6
  end
* xyz 0 1
   C       -4.14965        -4.17955        -2.32194
   C       -4.38128        -3.44115        -3.47281
   F       -5.64426        -3.19298        -3.83867
   C       -3.33436        -2.95128        -4.25391
   F       -3.60543        -2.23941        -5.35472
   C       -2.01735        -3.19726        -3.90115
   C       -1.78828        -3.94088        -2.76096
   C       -2.83389        -4.42997        -1.96313
   C       -2.25806        -5.13815        -0.81934
   C       -2.98535        -5.62039         0.24060
   C       -4.39335        -5.57545         0.32234
   N       -5.53355        -5.57956         0.45505
   C       -2.46005        -6.15955         1.43067
   N       -2.12716        -6.55598         2.45746
   C       -0.81995        -5.17012        -0.99702
   C       -0.48560        -4.35462        -2.18673
   O        0.60285        -4.03432        -2.60954
   C        0.06264        -5.80572        -0.16082
   C        1.45380        -5.99715        -0.32126
   C        2.14407        -6.12915        -1.50589
   C        3.46322        -6.59223        -1.23578
   O        4.26278        -6.87065        -2.27649
   C        5.42514        -7.64671        -2.10049
   C        3.62610        -6.74535         0.13602
   C        2.39290        -6.31604         0.76945
   C        2.19359        -6.01946         2.09684
   C        1.06953        -5.34456         2.67632
   C        1.24699        -5.29266         4.02806
   O        0.48267        -4.79615         4.99385
   C       -0.77849        -4.27799         4.61848
   C        2.53325        -5.91596         4.35892
   C        3.10096        -6.32632         3.21793
   C        4.84860        -7.13557         0.80614
   N        4.93055        -8.27372         1.58043
   C        6.19896        -8.36595         2.07478
   C        7.04710        -9.12690         2.87208
   C        8.28338        -8.46382         2.86930
   N        8.18772        -7.33109         2.08362
   C        6.92717        -7.25279         1.59071
   C        6.07751        -6.48820         0.78617
   C        9.46558        -8.86028         3.53700
   C       10.63308        -8.16151         3.55748
   C       11.80552        -8.54153         4.25644
   C       12.71687        -7.62254         4.74585
   C       13.63717        -8.27615         5.59117
   O       14.59222        -7.72005         6.33845
   C       14.79651        -6.32607         6.22654
   C       13.32609        -9.65338         5.64875
   C       12.25726        -9.87147         4.68042
   C       12.03375       -11.04730         4.01351
   C       11.22052       -11.26740         2.84396
   C       11.33046       -12.57471         2.48985
   O       10.77323       -13.25994         1.48381
   C        9.94103       -12.53604         0.60691
   C       12.23961       -13.24712         3.42192
   C       12.67168       -12.33958         4.30823
   C       13.83758       -10.58756         6.55517
   C       15.00704       -10.57291         7.28563
   C       15.08259       -11.38338         8.51820
   O       14.26892       -12.18698         8.92131
   C       16.35014       -10.98165         9.17676
   C       17.02419       -10.06477         8.35273
   C       18.23313        -9.52704         8.75987
   C       18.73833        -9.91940         9.99160
   C       18.06684       -10.83368        10.79971
   C       16.85769       -11.37963        10.39619
   F       18.59357       -11.18846        11.98131
   F       19.90144        -9.40021        10.40975
   C       16.24875        -9.87845         7.12251
   C       16.73168        -9.29598         5.97224
   C       16.08387        -9.36969         4.72717
   N       15.59323        -9.40774         3.68871
   C       17.94380        -8.58749         5.89082
   N       18.89681        -7.95732         5.76942
   H       -4.99480        -4.53154        -1.75400
   H       -1.20327        -2.82125        -4.50005
   H       -0.35369        -6.27159         0.72251
   H        1.76322        -5.99964        -2.49879
   H        5.72923        -7.94815        -3.10235
   H        5.22578        -8.53483        -1.49518
   H        6.22797        -7.07077        -1.63347
   H        0.26091        -4.90495         2.13151
   H       -1.27595        -3.99084         5.54241
   H       -1.36786        -5.03650         4.09570
   H       -0.66196        -3.40148         3.97461
   H        2.91062        -5.99718         5.35980
   H        4.05658        -6.79689         3.12829
   H        4.16214        -8.89756         1.75901
   H        6.83183       -10.03319         3.40160
   H        8.93695        -6.68342         1.91623
   H        6.28385        -5.56092         0.29012
   H        9.40127        -9.78814         4.08679
   H       10.67187        -7.17611         3.10855
   H       12.67521        -6.56381         4.56765
   H       15.64492        -6.09566         6.86869
   H       13.91837        -5.77080         6.56716
   H       15.03333        -6.04621         5.19665
   H       10.67463       -10.50772         2.32493
   H        9.57114       -13.25227        -0.12435
   H       10.50093       -11.74547         0.09865
   H        9.09975       -12.08767         1.14480
   H       12.50348       -14.28404         3.34534
   H       13.38004       -12.50836         5.09255
   H       13.16484       -11.39296         6.83442
   H       18.79036        -8.81790         8.16990
   H       16.33781       -12.08962        11.01923
*
