# ORCA input file
# SCF done       -200.504860500739          0.000874102516
! CAM-B3LYP def2-SVP def2/J RIJCOSX Grid4 TightSCF
%maxcore 5000
%tddft
    Mode sTDDFT
    Ethresh 5.0
    maxcore 5000
end

%pal
  nprocs 6
  end
* xyz 0 1
   C        4.59223        -0.25786        -1.49595
   C        3.20939        -0.33248        -1.58543
   C        2.49427        -1.55974        -1.30517
   N        1.15022        -1.56025        -1.32608
   C        0.51273        -0.46852        -1.66211
   C        1.22901         0.72870        -2.01824
   N        2.53048         0.77740        -1.95566
   C        0.50398         1.87739        -2.42738
   N       -0.12076         2.77898        -2.75684
   C       -0.90347        -0.47265        -1.67008
   N       -2.04878        -0.44604        -1.69967
   C        3.17081        -2.74933        -0.95838
   C        4.56986        -2.64873        -0.85008
   C        5.27254        -1.40946        -1.12372
   N        6.59798        -1.54882        -0.98862
   S        6.91893        -3.06089        -0.57753
   N        5.42367        -3.63232        -0.53910
   C        2.47604        -4.00541        -0.73440
   C        2.95305        -4.90348         0.23316
   C        2.29955        -6.09282         0.42819
   C        1.16498        -6.42477        -0.33441
   C        0.69008        -5.54544        -1.29765
   C        1.34580        -4.34708        -1.48910
   C        0.70265        -7.73075         0.07390
   C        1.54776        -8.20860         1.09110
   C        2.62952        -7.20007         1.40176
   C        4.03361        -7.77400         1.13570
   C        4.21128        -8.25997        -0.29747
   C        2.53947        -6.71023         2.85906
   C        1.17398        -6.12859         3.20488
   C        1.33508        -9.44022         1.65876
   C        0.26339       -10.23353         1.21708
   C       -0.56845        -9.74263         0.19962
   C       -0.35999        -8.50554        -0.37135
   C        0.01001       -11.53280         1.78954
   N        0.54016       -11.91929         3.00235
   C        0.12025       -13.18334         3.27797
   C        0.17824       -14.21384         4.21253
   C       -0.58275       -15.26179         3.68351
   N       -1.08985       -14.88242         2.45769
   C       -0.67756       -13.61529         2.19311
   C       -0.74987       -12.57772         1.26415
   C       -0.82406       -16.52464         4.28974
   C       -1.54854       -17.53374         3.75717
   C       -1.82102       -18.81173         4.36325
   C       -2.54717       -19.76067         3.62186
   C       -2.83636       -20.98474         4.16838
   C       -2.41633       -21.30151         5.47313
   C       -1.69503       -20.37640         6.21699
   C       -1.40479       -19.14928         5.66052
   C       -2.87076       -22.63439         5.79271
   C       -3.57004       -23.14639         4.68412
   C       -3.59161       -22.14146         3.55666
   C       -5.03354       -21.74769         3.18748
   C       -5.82231       -21.21400         4.37698
   C       -2.86905       -22.68507         2.30972
   C       -1.42856       -23.09494         2.59166
   C       -4.12613       -24.39870         4.72181
   C       -3.98824       -25.18018         5.87971
   C       -3.29158       -24.65979         6.97886
   C       -2.73514       -23.39809         6.94425
   C       -4.58638       -26.50276         5.93104
   C       -3.98953       -27.57976         6.62189
   C       -4.62961       -28.87556         6.70827
   N       -4.04773       -29.87246         7.41363
   C       -2.89159       -29.65513         7.97571
   C       -2.21649       -28.39257         7.82178
   N       -2.77333       -27.40635         7.16725
   C       -0.92831       -28.20919         8.38082
   N        0.10718       -28.09031         8.85752
   C       -2.27961       -30.68297         8.73838
   N       -1.75103       -31.48335         9.36455
   C       -5.84520       -29.13117         6.08966
   C       -6.43204       -28.09323         5.37841
   C       -5.80761       -26.78672         5.29263
   N       -6.56006       -25.93498         4.58447
   S       -7.87903       -26.69129         4.08352
   N       -7.59885       -28.13121         4.72141
   H        5.10741         0.66055        -1.71878
   H        3.81750        -4.64120         0.82163
   H       -0.17238        -5.79555        -1.89661
   H        0.99913        -3.67053        -2.25340
   H        4.21076        -8.60253         1.82522
   H        4.77222        -6.99829         1.34671
   H        3.48196        -9.03110        -0.53638
   H        5.20766        -8.67493        -0.43039
   H        4.08500        -7.43755        -0.99756
   H        3.30756        -5.95079         3.01864
   H        2.75719        -7.54843         3.52507
   H        0.94747        -5.27681         2.56778
   H        1.15948        -5.79693         4.24059
   H        0.39201        -6.87284         3.07026
   H        2.00649        -9.80514         2.42283
   H       -1.40033       -10.34517        -0.12886
   H       -1.01585        -8.14484        -1.14922
   H        1.07381       -11.32403         3.61054
   H        0.69154       -14.23266         5.15277
   H       -1.67546       -15.45491         1.87635
   H       -1.25651       -12.57928         0.32007
   H       -0.36825       -16.64106         5.26205
   H       -1.98358       -17.40420         2.77345
   H       -2.87138       -19.51436         2.62010
   H       -1.36766       -20.61293         7.21840
   H       -0.84952       -18.43066         6.24269
   H       -5.54191       -22.62509         2.78297
   H       -4.99906       -20.98817         2.40328
   H       -5.90477       -21.97276         5.15160
   H       -6.82483       -20.93111         4.06447
   H       -5.33394       -20.33957         4.80189
   H       -2.88190       -21.91559         1.53464
   H       -3.42448       -23.54691         1.93404
   H       -0.84781       -22.24441         2.94187
   H       -0.96464       -23.47891         1.68599
   H       -1.39162       -23.87104         3.35280
   H       -4.65333       -24.79806         3.87039
   H       -3.21385       -25.24810         7.87888
   H       -2.21231       -23.01045         7.80546
   H       -6.31025       -30.09829         6.17293
*
