# ORCA input file
# SCF done       -159.500753989140          0.000194955559
! CAM-B3LYP def2-SVP def2/J RIJCOSX Grid4 TightSCF
%maxcore 5000
%tddft
    Mode sTDDFT
    Ethresh 5.0
    maxcore 5000
end

%pal
  nprocs 6
  end
* xyz 0 1
   C       -2.60082        -1.25719        -2.88276
   S       -2.18179         0.33793        -3.41518
   C       -2.85348         1.11343        -2.00808
   C       -3.36835         0.13597        -1.14981
   C       -3.22078        -1.19964        -1.67220
   N       -3.73470        -2.07226        -0.75483
   C       -4.16865        -1.33433         0.32504
   N       -4.73088        -1.92586         1.44506
   O       -4.84663        -3.14685         1.45586
   O       -5.07894        -1.18078         2.36280
   C       -3.95624         0.01554         0.11735
   C       -2.84131         2.51407        -1.80777
   C       -3.64533         3.10272        -0.85443
   C       -3.64594         4.44899        -0.51844
   C       -2.85866         5.41448        -1.29955
   C       -2.03311         5.07359        -2.31142
   S       -1.74327         3.45450        -2.81790
   C       -3.21222         6.69002        -0.77904
   C       -4.14231         6.53802         0.25045
   C       -4.52074         7.77784         0.81241
   C       -3.88624         8.81505         0.20750
   S       -2.80547         8.33605        -1.05991
   C       -4.41054         5.13796         0.44881
   C       -5.28178         4.63501         1.44423
   C       -5.29016         3.36754         1.94573
   C       -6.22462         2.85057         2.87208
   N       -6.14757         1.54638         3.32227
   C       -7.18272         1.32349         4.16762
   C       -7.77935         0.36134         4.97196
   C       -8.89753         0.97674         5.55005
   N       -8.97690         2.28686         5.10937
   C       -7.93577         2.52507         4.26868
   C       -7.33668         3.48001         3.46159
   C       -9.87660         0.44780         6.42460
   C       -9.81004        -0.77910         7.00326
   C      -10.79826        -1.36240         7.84633
   C      -12.08276        -0.89810         8.00776
   C      -13.05106        -1.48214         8.82210
   C      -12.75478        -2.67696         9.61957
   C      -11.56649        -3.31902         9.61163
   S      -10.22554        -2.81214         8.67149
   C      -13.95922        -2.97117        10.31246
   C      -14.94970        -2.04870         9.96775
   C      -16.15785        -2.30898        10.65496
   C      -16.05586        -3.39141        11.46969
   S      -14.49904        -4.14426        11.44709
   C      -14.39627        -1.11086         9.02146
   C      -15.03520        -0.03541         8.36494
   C      -16.35492         0.27862         8.40533
   C      -16.93265         1.35689         7.69260
   S      -16.00193         2.47184         6.70689
   C      -17.37142         3.38651         6.22121
   C      -18.51921         2.87686         6.78041
   C      -18.26011         1.73168         7.61102
   N      -19.44937         1.29761         8.11400
   C      -20.43613         2.12439         7.62961
   N      -21.76938         1.88955         7.99836
   O      -21.97068         0.94143         8.74494
   O      -22.62907         2.62971         7.56142
   C      -19.91789         3.10393         6.81223
   H       -2.35509        -2.09947        -3.49469
   H       -3.78842        -3.07575        -0.80237
   H       -4.19219         0.77237         0.83429
   H       -4.36535         2.46020        -0.37857
   H       -1.47673         5.80321        -2.87833
   H       -5.22137         7.90059         1.61836
   H       -3.97951         9.86102         0.42564
   H       -5.98149         5.35179         1.85267
   H       -4.50288         2.68909         1.65156
   H       -5.50683         0.83184         3.00882
   H       -7.47078        -0.65364         5.11231
   H       -9.68437         2.94157         5.39444
   H       -7.63866         4.49512         3.30138
   H      -10.71833         1.09505         6.63490
   H       -8.92450        -1.37674         6.83989
   H      -12.35974        -0.02339         7.43727
   H      -11.38065        -4.20700        10.19499
   H      -17.06258        -1.73478        10.57609
   H      -16.81492        -3.80868        12.10229
   H      -14.40339         0.58627         7.74213
   H      -17.04390        -0.31706         8.98424
   H      -17.24679         4.22347         5.56646
   H      -19.63532         0.51870         8.72432
   H      -20.47695         3.86830         6.31345
*
