# ORCA input file
# SCF done       -189.842714611981          0.000625611911
! CAM-B3LYP def2-SVP def2/J RIJCOSX Grid4 TightSCF
%maxcore 5000
%tddft
    Mode sTDDFT
    Ethresh 5.0
    maxcore 5000
end

%pal
  nprocs 6
  end
* xyz 0 1
   C       -8.34072       -10.99233        -6.71831
   C       -9.14155       -11.26573        -7.78728
   S       -8.28168       -11.45819        -9.27328
   C       -6.80563       -11.14790        -8.46130
   C       -6.99135       -10.92389        -7.10441
   C       -5.68044       -10.69835        -6.47712
   O       -5.42104       -10.51551        -5.30988
   C       -4.71003       -10.69826        -7.61521
   C       -5.40748       -11.13465        -8.80917
   C       -4.89089       -11.66761        -9.96522
   C       -5.73693       -12.09709       -11.00688
   N       -6.42000       -12.43063       -11.86705
   C       -3.52610       -11.92317       -10.18680
   N       -2.43009       -12.19398       -10.39608
   C       -3.44361       -10.24166        -7.40089
   C       -2.48573        -9.77811        -8.32598
   S       -0.81742        -9.63476        -7.83449
   C       -0.36704        -8.96147        -9.36410
   C       -1.47475        -8.82709       -10.18876
   C       -2.64809        -9.28917        -9.61423
   C        0.97612        -8.61944        -9.66108
   C        1.47972        -8.08656       -10.83313
   C        2.85279        -7.86644       -10.79706
   C        3.43745        -8.22752        -9.59833
   S        2.24817        -8.85145        -8.49331
   C        4.80315        -8.14499        -9.23151
   S        5.99363        -7.48995       -10.32014
   C        7.27408        -7.76451        -9.16910
   C        6.76837        -8.33148        -8.01300
   C        5.39358        -8.54115        -8.04772
   C        8.60368        -7.40506        -9.51018
   C        9.69129        -7.62938        -8.73218
   C       11.01999        -7.26396        -9.06637
   N       12.06840        -7.57660        -8.22162
   C       13.22188        -7.11254        -8.76849
   C       14.59680        -7.01481        -8.58045
   C       15.09213        -6.32335        -9.69230
   N       14.04363        -6.01009       -10.53691
   C       12.89131        -6.48289        -9.99493
   C       11.51608        -6.57943       -10.18213
   C       16.41739        -5.93317       -10.01133
   C       17.51131        -6.21092        -9.25968
   C       18.83410        -5.80017        -9.56675
   S       20.13776        -6.26089        -8.50453
   C       21.30497        -5.42130        -9.48655
   C       20.68983        -4.82884       -10.57160
   C       19.31564        -5.04053       -10.61776
   C       22.67698        -5.39620        -9.13587
   C       23.29605        -6.01054        -8.06509
   C       24.66598        -5.77333        -8.00547
   C       25.13110        -4.96931        -9.02678
   S       23.82814        -4.50430       -10.09013
   C       26.45241        -4.51656        -9.25471
   S       27.75778        -4.97741        -8.20844
   C       28.89717        -4.02353        -9.12836
   C       28.25807        -3.40080       -10.19091
   C       26.90104        -3.67696       -10.26224
   C       30.24980        -3.96867        -8.73212
   C       31.20637        -3.20552        -9.33367
   C       32.53669        -3.18646        -8.87266
   C       33.53494        -2.41032        -9.39522
   C       34.91120        -2.36238        -8.93177
   C       35.51758        -3.07971        -7.92960
   C       36.88243        -2.88663        -7.63327
   N       37.99332        -2.73481        -7.38763
   C       34.89984        -4.04654        -7.11614
   N       34.45740        -4.84528        -6.41883
   C       35.57366        -1.38247        -9.75039
   C       34.70789        -0.83500       -10.68480
   C       35.32063         0.13097       -11.50035
   C       36.63243         0.29219       -11.16439
   S       37.14985        -0.71831        -9.86218
   C       33.38033        -1.44986       -10.52399
   O       32.38228        -1.21883       -11.17466
   H       -8.69523       -10.85153        -5.71416
   H      -10.20829       -11.37659        -7.79554
   H       -3.16818       -10.15986        -6.35351
   H       -1.41991        -8.41164       -11.17797
   H       -3.60724        -9.22409       -10.09680
   H        0.86504        -7.86829       -11.68705
   H        3.42197        -7.45895       -11.61378
   H        7.38072        -8.58112        -7.16582
   H        4.82579        -8.97134        -7.24115
   H        8.73165        -6.92531       -10.46959
   H        9.56442        -8.12713        -7.77973
   H       11.97122        -8.07473        -7.35381
   H       15.17766        -7.38215        -7.75927
   H       14.14114        -5.51451       -11.40613
   H       10.93440        -6.20872       -11.00123
   H       16.53604        -5.36973       -10.92751
   H       17.39455        -6.78406        -8.35151
   H       21.23983        -4.26029       -11.30121
   H       18.68526        -4.64726       -11.39425
   H       22.75357        -6.61000        -7.35574
   H       25.31560        -6.16611        -7.24328
   H       28.77454        -2.76744       -10.88874
   H       26.23962        -3.28500       -11.01488
   H       30.52607        -4.57422        -7.87717
   H       30.95707        -2.58250       -10.17784
   H       32.77061        -3.83113        -8.03407
   H       34.82325         0.67291       -12.28325
   H       37.34554         0.95781       -11.61037
*
