# ORCA input file
# SCF done       -202.728266491528          0.000873187790
! CAM-B3LYP def2-SVP def2/J RIJCOSX Grid4 TightSCF
%maxcore 5000
%tddft
    Mode sTDDFT
    Ethresh 5.0
    maxcore 5000
end

%pal
  nprocs 6
  end
* xyz 0 1
   C      -13.17994         1.17863        -4.06228
   C      -14.54744         0.97214        -3.96482
   C      -15.06047        -0.12852        -3.29193
   C      -14.21970        -1.05266        -2.69116
   C      -12.85095        -0.85828        -2.78267
   C      -12.32600         0.25881        -3.47319
   C      -10.87201         0.20591        -3.42182
   C      -10.01042         1.19292        -3.81037
   C      -10.42011         2.42873        -4.35577
   N      -10.69089         3.45109        -4.80101
   C       -8.60699         1.14088        -3.66460
   N       -7.46448         1.16886        -3.55790
   C      -10.52236        -1.09509        -2.85008
   C      -11.74235        -1.62612        -2.24035
   C      -11.80345        -2.48837        -1.18147
   C      -10.66958        -2.97485        -0.49560
   N       -9.79206        -3.33420         0.15071
   C      -13.00970        -2.91439        -0.58765
   N      -13.96564        -3.30690        -0.08857
   C       -9.32672        -1.71693        -3.00420
   C       -9.03795        -3.11022        -2.77060
   C       -7.77610        -3.45925        -2.26631
   C       -7.50597        -4.77554        -1.98341
   C       -8.44186        -5.77600        -2.30670
   C       -9.66768        -5.44477        -2.86866
   C       -9.96715        -4.11495        -3.07323
   C       -7.86494        -7.06559        -1.99638
   C       -6.58150        -6.85875        -1.46606
   C       -6.27802        -5.38299        -1.35072
   C       -4.97939        -5.00676        -2.07786
   C       -4.99107        -5.41420        -3.54667
   C       -6.20289        -5.05142         0.16021
   C       -6.18037        -3.57041         0.51186
   C       -5.79211        -7.91996        -1.09584
   C       -6.27345        -9.22196        -1.27398
   C       -7.55836        -9.41969        -1.79728
   C       -8.35776        -8.35363        -2.15479
   C       -5.46827       -10.37717        -0.93196
   O       -6.03316       -11.60236        -1.03345
   C       -5.11946       -12.51947        -0.68190
   C       -3.94257       -11.92540        -0.35784
   C       -4.15437       -10.53288        -0.52458
   S       -2.90881        -9.34208        -0.15598
   C       -2.48221        -8.63060        -1.72120
   C       -1.40273        -7.74439        -1.70522
   C       -1.00765        -7.16267        -2.88488
   C       -1.69238        -7.44429        -4.08134
   C       -2.76638        -8.32103        -4.08743
   C       -3.15528        -8.91807        -2.90273
   C       -1.06219        -6.70851        -5.15285
   C        0.01926        -5.98148        -4.62199
   C        0.15043        -6.22717        -3.13813
   C        0.03192        -4.91973        -2.33413
   C       -1.25385        -4.15832        -2.62675
   C        1.49150        -6.91123        -2.80435
   C        1.69882        -8.22109        -3.55499
   C        0.79735        -5.19729        -5.43382
   C        0.47465        -5.08313        -6.79628
   C       -0.58355        -5.84184        -7.31936
   C       -1.34596        -6.65691        -6.51167
   C        1.28885        -4.23601        -7.62504
   C        0.91836        -3.54503        -8.73516
   C        1.85144        -3.01457        -9.72881
   C        3.18628        -2.76780        -9.56205
   C        3.90262        -2.93516        -8.35742
   N        4.54803        -3.03591        -7.41309
   C        4.02844        -2.25825       -10.57382
   N        4.76738        -1.85087       -11.35162
   C        1.08197        -2.78721       -10.94368
   C       -0.28914        -2.98714       -10.66229
   C       -1.24158        -2.84821       -11.65892
   C       -0.81961        -2.50902       -12.93518
   C        0.52525        -2.30530       -13.21183
   C        1.48791        -2.44081       -12.22330
   C       -0.42870        -3.30394        -9.25011
   C       -1.56731        -3.15447        -8.50729
   C       -2.83105        -2.85840        -9.05949
   N       -3.88534        -2.64547        -9.45951
   C       -1.61424        -3.19640        -7.09768
   N       -1.71830        -3.14316        -5.95592
   H      -12.79858         2.03552        -4.59300
   H      -15.22191         1.67897        -4.42337
   H      -16.12894        -0.26982        -3.23569
   H      -14.62811        -1.90761        -2.17676
   H       -8.49658        -1.13502        -3.38332
   H       -7.05563        -2.68012        -2.07218
   H      -10.37683        -6.21238        -3.13953
   H      -10.91318        -3.84219        -3.52026
   H       -4.14735        -5.50188        -1.57226
   H       -4.82418        -3.92997        -2.00820
   H       -5.08942        -6.49343        -3.64496
   H       -4.06550        -5.10841        -4.02923
   H       -5.82130        -4.94310        -4.06849
   H       -5.30654        -5.53410         0.55617
   H       -7.06892        -5.50617         0.64680
   H       -5.38264        -3.04632        -0.00810
   H       -6.01389        -3.46135         1.58120
   H       -7.13329        -3.10663         0.27345
   H       -4.81919        -7.75151        -0.66669
   H       -7.91897       -10.42938        -1.92012
   H       -9.34634        -8.52325        -2.55418
   H       -5.42286       -13.54713        -0.70552
   H       -3.03280       -12.39119        -0.04138
   H       -0.89570        -7.54402        -0.77329
   H       -3.29383        -8.54554        -5.00217
   H       -3.98037        -9.61319        -2.89994
   H        0.89060        -4.28802        -2.56964
   H        0.07915        -5.16329        -1.27033
   H       -1.30769        -3.87074        -3.67326
   H       -1.29787        -3.25659        -2.02074
   H       -2.11917        -4.77251        -2.39297
   H        1.52538        -7.10139        -1.72985
   H        2.30273        -6.22251        -3.04808
   H        0.91608        -8.93517        -3.30860
   H        2.65830        -8.65623        -3.28573
   H        1.68621        -8.05615        -4.63027
   H        1.62798        -4.63084        -5.03959
   H       -0.77667        -5.81440        -8.38271
   H       -2.14996        -7.24307        -6.93050
   H        2.33206        -4.19612        -7.33947
   H       -2.28804        -3.01007       -11.45691
   H       -1.54923        -2.40354       -13.72341
   H        0.83025        -2.04044       -14.21262
   H        2.52804        -2.28473       -12.45751
*
