# ORCA input file
# SCF done       -204.502089194019          0.000644700930
! CAM-B3LYP def2-SVP def2/J RIJCOSX Grid4 TightSCF
%maxcore 5000
%tddft
    Mode sTDDFT
    Ethresh 5.0
    maxcore 5000
end

%pal
  nprocs 6
  end
* xyz 0 1
   C       -7.56432        -5.97665         4.22426
   C       -6.68804        -7.00107         4.55134
   C       -6.92591        -8.30590         4.14399
   C       -8.05399        -8.62651         3.40364
   C       -8.93478        -7.61162         3.07101
   C       -8.69052        -6.27976         3.47565
   C       -9.76200        -5.42829         2.97103
   C       -9.93398        -4.09965         3.25835
   C       -9.08126        -3.35532         4.10025
   N       -8.42877        -2.69013         4.77083
   C      -10.99844        -3.29725         2.79803
   N      -11.83373        -2.58467         2.46047
   C      -10.58636        -6.26237         2.10737
   C      -10.19977        -7.64439         2.35458
   C      -11.01193        -8.73994         2.22382
   C      -12.36936        -8.65697         1.84800
   N      -13.49053        -8.61797         1.60514
   C      -10.61811       -10.05370         2.54518
   N      -10.34162       -11.14471         2.77152
   C      -11.45911        -5.78425         1.16567
   C      -11.95042        -6.42854         0.01340
   S      -11.20708        -7.82283        -0.73442
   C      -12.36424        -7.81395        -2.02497
   C      -13.26201        -6.76647        -1.87869
   C      -13.01623        -5.98692        -0.76032
   C      -12.33049        -8.80349        -3.03631
   C      -13.20764        -8.98023        -4.09178
   C      -12.90903       -10.08583        -4.88045
   C      -11.79126       -10.78119        -4.45422
   S      -11.10397       -10.03924        -3.04312
   C      -11.22362       -11.95621        -5.01369
   S       -9.71544       -12.58940        -4.42092
   C       -9.78161       -13.92677        -5.53225
   C      -10.92269       -13.85628        -6.30586
   C      -11.72646       -12.75327        -6.02294
   C       -8.76348       -14.92091        -5.57560
   C       -7.62338       -14.86667        -4.85656
   C       -6.60862       -15.87438        -4.89573
   C       -5.42688       -15.79247        -4.26410
   C       -5.00927       -14.60911        -3.44307
   C       -4.39408       -16.89520        -4.33067
   N       -4.75374       -18.05357        -5.09857
   C       -5.48957       -19.07076        -4.58807
   C       -5.99823       -20.08973        -5.31454
   C       -6.69240       -21.20049        -4.75768
   S       -7.12878       -22.53860        -5.77909
   C       -7.83499       -23.40528        -4.44021
   C       -7.73243       -22.66074        -3.28061
   C       -7.09659       -21.43526        -3.45680
   C       -8.38864       -24.69917        -4.59801
   C       -8.97809       -25.48976        -3.62437
   C       -9.39459       -26.72851        -4.09273
   C       -9.13797       -26.92749        -5.43914
   S       -8.36545       -25.52349        -6.12716
   C       -9.41013       -28.07959        -6.21170
   S       -9.01746       -28.17066        -7.89668
   C       -9.61769       -29.80899        -8.00591
   C      -10.09558       -30.22645        -6.76719
   C       -9.98314       -29.27076        -5.77522
   C       -9.54366       -30.50460        -9.22253
   C       -9.95541       -31.79683        -9.41474
   C       -9.83642       -32.43338       -10.65557
   C      -10.11314       -33.75527       -10.93136
   C      -10.39004       -34.28054       -12.25656
   C      -10.12367       -33.68539       -13.46416
   C       -9.48006       -32.44437       -13.64440
   N       -8.95846       -31.44726       -13.87696
   C      -10.42844       -34.26026       -14.71481
   N      -10.64735       -34.66443       -15.76739
   C      -11.02462       -35.58107       -12.07279
   C      -11.02371       -35.89672       -10.69575
   C      -11.59150       -37.07505       -10.24221
   C      -12.15994       -37.93718       -11.16863
   C      -12.15397       -37.63335       -12.52155
   C      -11.58699       -36.45602       -12.98779
   C      -10.33382       -34.82984        -9.98243
   C       -9.79735       -34.94108        -8.72315
   C      -10.04127       -36.02549        -7.85680
   N      -10.22108       -36.86153        -7.09001
   C       -8.84375       -34.05987        -8.17243
   N       -8.02497       -33.41986        -7.68359
   H       -7.36034        -4.96928         4.54763
   H       -5.80572        -6.77499         5.13046
   H       -6.22497        -9.08387         4.40566
   H       -8.22897        -9.64193         3.08650
   H      -11.76724        -4.74984         1.25058
   H      -14.06294        -6.58491        -2.57116
   H      -13.60676        -5.13280        -0.48013
   H      -14.04204        -8.32790        -4.27349
   H      -13.48385       -10.37578        -5.74076
   H      -11.15905       -14.58934        -7.05659
   H      -12.65316       -12.54541        -6.52614
   H       -8.94648       -15.75177        -6.24501
   H       -7.46086       -14.01240        -4.21393
   H       -6.84136       -16.75518        -5.48020
   H       -5.72816       -14.41584        -2.64843
   H       -4.94950       -13.71473        -4.06221
   H       -4.03502       -14.77809        -2.99109
   H       -4.17370       -17.22067        -3.30681
   H       -3.46735       -16.47922        -4.74491
   H       -4.72274       -17.96591        -6.10304
   H       -5.60480       -19.04708        -3.51426
   H       -5.85311       -20.10185        -6.38611
   H       -8.10590       -23.00407        -2.33280
   H       -6.93870       -20.73525        -2.65672
   H       -9.09543       -25.16919        -2.60555
   H       -9.86807       -27.46819        -3.47326
   H      -10.49945       -31.20807        -6.59965
   H      -10.29633       -29.42522        -4.75894
   H       -9.09147       -29.98059       -10.05506
   H      -10.40943       -32.32786        -8.59206
   H       -9.57283       -31.79659       -11.48890
   H      -11.60702       -37.32120        -9.19293
   H      -12.61257       -38.85602       -10.82806
   H      -12.59913       -38.31969       -13.22575
   H      -11.59430       -36.23598       -14.04250
*
