# ORCA input file
# SCF done       -207.286312015956          0.000462165899
! CAM-B3LYP def2-SVP def2/J RIJCOSX Grid4 TightSCF
%maxcore 5000
%tddft
    Mode sTDDFT
    Ethresh 5.0
    maxcore 5000
end

%pal
  nprocs 6
  end
* xyz 0 1
   C      -12.49468         1.53160        -9.38679
   C      -11.61150         1.87891       -10.39849
   C      -10.33747         1.33235       -10.45775
   C       -9.90569         0.42741        -9.49971
   C      -10.77931         0.07328        -8.48572
   C      -12.08131         0.62018        -8.42793
   C      -12.78087         0.05675        -7.27889
   C      -14.02271         0.42679        -6.83463
   C      -14.81121         1.43100        -7.43503
   N      -15.50460         2.23475        -7.87194
   C      -14.67607        -0.10433        -5.70315
   N      -15.26538        -0.48950        -4.79566
   C      -11.91228        -0.97384        -6.72525
   C      -10.60193        -0.80151        -7.33828
   C       -9.40146        -1.13512        -6.76930
   C       -9.28173        -1.68684        -5.47623
   N       -9.14675        -2.08283        -4.40738
   C       -8.15047        -0.87948        -7.36503
   N       -7.10752        -0.71688        -7.81609
   C      -12.32150        -1.97009        -5.87996
   C      -11.72467        -3.22783        -5.65493
   S      -10.62270        -4.00220        -6.77085
   C      -10.53882        -5.42208        -5.77722
   C      -11.33475        -5.28920        -4.65193
   C      -12.01143        -4.08032        -4.59817
   C       -9.72848        -6.51743        -6.15647
   C       -8.96230        -6.64821        -7.29909
   C       -8.27016        -7.85181        -7.36551
   C       -8.48474        -8.66972        -6.27233
   S       -9.57952        -7.92784        -5.14372
   C       -7.91631        -9.94438        -6.02178
   S       -6.86588       -10.69283        -7.18642
   C       -6.62688       -12.07439        -6.15437
   C       -7.33982       -11.93442        -4.97818
   C       -8.06158       -10.74672        -4.90606
   C       -5.77492       -13.12317        -6.59155
   C       -5.45302       -14.21825        -5.86726
   C       -4.56880       -15.23092        -6.32896
   C       -4.13749       -16.35640        -5.64246
   C       -4.66455       -16.69925        -4.30238
   O       -4.99747       -15.88754        -3.48127
   O       -4.81414       -18.01460        -4.05492
   C       -3.22490       -17.15032        -6.40553
   C       -3.02086       -16.62802        -7.65561
   S       -3.89614       -15.18684        -7.93550
   C       -2.47346       -18.30288        -5.94889
   S       -1.79396       -18.37352        -4.34703
   C       -0.98133       -19.86568        -4.71976
   C       -1.23930       -20.26176        -6.01161
   C       -2.07250       -19.37739        -6.70394
   C       -0.15043       -20.50158        -3.75663
   C        0.04416       -20.15765        -2.43596
   C        0.96550       -20.97376        -1.78224
   C        1.49930       -21.95560        -2.59117
   S        0.82607       -21.87130        -4.19653
   C        2.48765       -22.91945        -2.27129
   S        3.19448       -23.00280        -0.69114
   C        4.25679       -24.29945        -1.18170
   C        4.02881       -24.63522        -2.50929
   C        3.04408       -23.86960        -3.11352
   C        5.17174       -24.84475        -0.25930
   C        6.13302       -25.76334        -0.56842
   C        7.01458       -26.26572         0.40347
   C        7.97446       -27.23073         0.22616
   C        9.10458       -27.43697         1.12150
   C        9.21565       -27.03125         2.42528
   C        8.21263       -26.36723         3.16229
   N        7.44432       -25.83105         3.82662
   C       10.34858       -27.26507         3.23287
   N       11.23589       -27.41925         3.94473
   C       10.11167       -28.17076         0.36563
   C        9.56722       -28.53185        -0.88754
   C       10.33095       -29.21903        -1.81612
   C       11.63835       -29.54561        -1.48760
   C       12.17101       -29.20126        -0.25388
   C       11.41606       -28.51296         0.68435
   C        8.18142       -28.08592        -0.93188
   C        7.22068       -28.57165        -1.78059
   C        7.49415       -29.41861        -2.87495
   N        7.65086       -30.08378        -3.79750
   C        5.83093       -28.39074        -1.61522
   N        4.68890       -28.32541        -1.51758
   H      -13.48079         1.96501        -9.36026
   H      -11.92509         2.58461       -11.15250
   H       -9.67165         1.61344       -11.25934
   H       -8.91609         0.00337        -9.55597
   H      -13.26381        -1.83532        -5.36427
   H      -11.41062        -6.06286        -3.90886
   H      -12.67621        -3.79634        -3.80206
   H       -8.91618        -5.88109        -8.05185
   H       -7.62107        -8.13310        -8.17555
   H       -7.33040       -12.67386        -4.19865
   H       -8.67352       -10.45966        -4.06902
   H       -5.35037       -13.00334        -7.58141
   H       -5.83316       -14.35448        -4.86596
   H       -4.52901       -18.57030        -4.79366
   H       -2.36504       -17.00666        -8.41387
   H       -0.83221       -21.16319        -6.43346
   H       -2.38845       -19.52669        -7.72079
   H       -0.47198       -19.33684        -1.97020
   H        1.24968       -20.85927        -0.75128
   H        4.55092       -25.43094        -3.00791
   H        2.72859       -23.98345        -4.13570
   H        5.08622       -24.50812         0.76614
   H        6.24483       -26.07716        -1.59456
   H        6.97650       -25.77462         1.36638
   H        9.93137       -29.48763        -2.78048
   H       12.24755       -30.07430        -2.20469
   H       13.18997       -29.46801        -0.01849
   H       11.84786       -28.24933         1.63570
*
