# ORCA input file
# SCF done       -189.448620128827          0.001255840301
! CAM-B3LYP def2-SVP def2/J RIJCOSX Grid4 TightSCF
%maxcore 5000
%tddft
    Mode sTDDFT
    Ethresh 5.0
    maxcore 5000
end

%pal
  nprocs 6
  end
* xyz 0 1
   C       -4.90629        -6.07555         3.60243
   C       -4.98041        -4.71503         3.32915
   C       -3.90924        -4.00964         2.65870
   N       -4.08284        -2.74119         2.29973
   C       -5.18443        -2.10647         2.63713
   C       -6.18200        -2.76367         3.43082
   N       -6.07561        -4.03142         3.72531
   C       -7.30627        -2.02827         3.88640
   N       -8.19370        -1.39398         4.23499
   C       -5.35781        -0.77061         2.21070
   N       -5.51014         0.31811         1.88486
   C       -2.70470        -4.67888         2.27230
   C       -2.64378        -6.05930         2.59167
   C       -3.74223        -6.74683         3.23887
   N       -3.45462        -8.03309         3.46536
   S       -1.96197        -8.32637         2.94895
   N       -1.59737        -6.85899         2.41818
   C       -1.70655        -4.04044         1.51603
   C       -1.30005        -2.68955         1.52924
   C       -1.49220        -1.69495         2.49745
   C       -0.88531        -0.47379         2.33455
   C       -0.03868        -0.22820         1.24311
   C        0.20704        -1.19809         0.29903
   C       -0.44186        -2.43483         0.40421
   C       -0.32162        -3.61219        -0.37402
   C       -1.02419        -4.70280         0.36587
   O       -1.14112        -5.85626         0.01758
   C        0.20859        -3.76762        -1.66443
   C        0.26936        -2.64288        -2.54828
   C        0.74811        -2.80346        -3.80946
   C        0.86753        -1.85864        -4.92214
   C        0.51573        -0.41361        -4.82073
   C        1.62113         0.49376        -5.39352
   N        1.56546         1.77971        -4.72908
   C       -0.84698        -0.15075        -5.48992
   N       -1.27763         1.21838        -5.25401
   C        1.35945        -2.55621        -5.98797
   C        1.67701        -2.11525        -7.34918
   C        2.17987        -3.17458        -8.29442
   C        2.29215        -4.54769        -7.82139
   C        2.03662        -4.90248        -6.53895
   C        1.58670        -3.94015        -5.60857
   C        1.20900        -4.08480        -4.26291
   C        1.15285        -5.18763        -3.40190
   C        0.64197        -5.03186        -2.14059
   C        3.13331        -2.07002        -7.78345
   C        4.20371        -2.40840        -6.86933
   C        5.46408        -1.94270        -6.87246
   C        6.18357        -0.94697        -7.64444
   C        5.72781         0.13566        -8.37532
   C        6.64570         0.94954        -9.02318
   C        8.00910         0.69046        -8.94403
   C        8.48976        -0.36853        -8.19628
   C        7.58462        -1.18945        -7.52852
   C        7.79392        -2.35650        -6.72369
   C        6.49453        -2.63885        -6.05506
   O        6.31230        -3.19429        -4.99337
   C        8.86081        -3.24681        -6.60250
   C        8.53251        -4.62249        -6.33852
   C        9.52081        -5.58420        -5.92202
   N        9.11428        -6.80561        -5.51594
   C        7.84792        -7.11865        -5.60981
   C        6.92520        -6.24459        -6.27062
   N        7.29854        -5.02632        -6.60952
   C        5.61091        -6.65015        -6.58358
   N        4.53099        -6.96580        -6.80908
   C        7.39342        -8.36597        -5.11120
   N        6.98020        -9.36280        -4.72637
   C       10.87321        -5.26418        -5.92256
   C       11.23445        -3.98435        -6.34102
   C       10.25286        -2.97274        -6.69306
   N       10.83004        -1.81748        -6.99598
   S       12.43402        -1.97550        -6.88137
   N       12.48116        -3.51266        -6.42471
   H       -5.71381        -6.57536         4.10920
   H       -2.09162        -1.89504         3.37070
   H       -1.03539         0.30352         3.06843
   H        0.44865         0.73198         1.16303
   H        0.92227        -1.01753        -0.48858
   H       -0.14530        -1.70208        -2.22155
   H        0.42290        -0.14777        -3.76308
   H        1.50615         0.56332        -6.48683
   H        2.59806         0.04467        -5.18539
   H        0.66470         2.20897        -4.92081
   H        2.29921         2.39242        -5.06582
   H       -1.56500        -0.90180        -5.11832
   H       -0.75577        -0.28921        -6.57085
   H       -1.47428         1.35429        -4.26702
   H       -2.13137         1.41204        -5.76640
   H        1.04884        -1.33115        -7.75322
   H        1.94392        -3.07660        -9.34761
   H        2.58152        -5.29681        -8.54257
   H        2.14929        -5.92887        -6.22731
   H        1.50845        -6.15193        -3.73225
   H        0.58492        -5.87563        -1.47325
   H        3.37911        -1.33245        -8.53505
   H        3.99262        -3.18357        -6.14235
   H        4.67480         0.36582        -8.42819
   H        6.29563         1.79721        -9.59439
   H        8.70300         1.33563        -9.46223
   H        9.54775        -0.54984        -8.10059
   H       11.61042        -5.97568        -5.59339
*
