# ORCA input file
# SCF done       -238.238160349313          0.000863527289
! CAM-B3LYP def2-SVP def2/J RIJCOSX Grid4 TightSCF
%maxcore 5000
%tddft
    Mode sTDDFT
    Ethresh 5.0
    maxcore 5000
end

%pal
  nprocs 6
  end
* xyz 0 1
   C      -11.18026        -2.97484         2.47505
   S      -10.50158        -4.46383         2.00550
   C       -8.91458        -3.79533         1.89602
   C       -8.92305        -2.45184         2.25489
   C      -10.23091        -1.98474         2.59991
   C      -10.40487        -0.64693         3.02209
   C       -9.33727         0.20120         3.11263
   O       -9.43345         1.49519         3.55571
   C      -10.69604         1.98404         3.92812
   C       -8.01963        -0.26315         2.76342
   O       -6.87332         0.47509         2.85259
   C       -6.90133         1.88320         2.77990
   C       -7.83804        -1.55797         2.35512
   C       -7.78487        -4.53551         1.36068
   C       -7.39594        -5.80309         1.82684
   C       -8.10681        -6.41399         2.96886
   O       -9.31581        -6.56567         2.99636
   C       -7.29203        -6.77743         4.13930
   C       -5.92897        -6.81686         4.25653
   S       -5.42187        -7.34494         5.80213
   C       -7.05793        -7.50636         6.32612
   C       -7.94071        -7.15921         5.35908
   C       -9.42230        -7.10816         5.54265
   O      -10.07804        -8.10280         5.74897
   C      -10.00111        -5.74055         5.54428
   C      -11.38910        -5.61659         5.55136
   C      -11.97863        -4.36831         5.57992
   C      -11.18848        -3.23016         5.60071
   C       -9.80750        -3.34339         5.59085
   C       -9.21342        -4.59058         5.56433
   C       -6.31182        -6.44580         1.23233
   C       -5.58676        -5.84094         0.22935
   C       -5.92041        -4.55629        -0.20845
   C       -7.02614        -3.93389         0.35675
   C       -5.11592        -3.88142        -1.23284
   C       -4.54357        -4.58847        -2.25386
   C       -3.72589        -3.93534        -3.20843
   C       -3.00586        -4.40182        -4.29323
   C       -2.83634        -5.77561        -4.86558
   C       -2.86889        -6.91545        -3.83811
   N       -2.13850        -6.56151        -2.63238
   C       -3.88793        -6.04199        -5.96282
   N       -5.21987        -6.11921        -5.38454
   C       -2.37197        -3.24683        -4.89812
   C       -1.59657        -3.13243        -5.98903
   C       -1.09031        -1.80693        -6.45509
   C       -1.45726        -0.65520        -5.57929
   C       -2.22506        -0.79027        -4.48312
   C       -2.72238        -2.06139        -4.10767
   C       -3.54225        -2.49027        -3.08617
   C       -4.16542        -1.78766        -2.02892
   C       -4.92071        -2.46527        -1.13068
   C       -1.56880        -1.66185        -7.87977
   C       -2.38587        -0.71490        -8.32914
   C       -2.88922        -0.67875        -9.69973
   C       -4.12659        -0.09014       -10.01679
   C       -5.10129         0.36505        -9.00342
   O       -5.79621         1.35006        -9.16249
   C       -5.23050        -0.47101        -7.78727
   C       -5.60725         0.07802        -6.59398
   S       -5.63495        -1.05622        -5.31415
   C       -5.13866        -2.30205        -6.37809
   C       -4.97254        -1.87643        -7.66311
   C       -4.61600        -2.82801        -8.74084
   O       -3.74719        -3.66712        -8.57708
   C       -5.39988        -2.74693        -9.99298
   C       -4.88054        -3.34328       -11.14176
   C       -5.57052        -3.28379       -12.33593
   C       -6.79845        -2.64513       -12.39185
   C       -7.34067        -2.08269       -11.24641
   C       -6.65014        -2.13122       -10.05104
   C       -4.49910         0.05061       -11.35459
   C       -3.76230        -0.52671       -12.36125
   C       -2.59447        -1.23251       -12.05211
   C       -2.13417        -1.21120       -10.73539
   C       -1.88548        -1.99231       -13.05220
   S       -1.82445        -1.47959       -14.70561
   C       -0.90438        -2.84116       -15.17104
   C       -0.66327        -3.69038       -14.11695
   C       -1.23179        -3.20863       -12.89242
   C       -1.13920        -4.01190       -11.72969
   C       -0.47843        -5.20424       -11.77149
   O       -0.34004        -6.05567       -10.72557
   C       -0.83919        -5.65949        -9.47043
   C        0.14641        -5.65846       -12.99404
   O        0.79646        -6.84334       -12.87297
   C        1.43822        -7.36712       -14.00772
   C        0.04228        -4.92097       -14.13493
   H      -12.23285        -2.90417         2.66222
   H      -11.39955        -0.32771         3.28732
   H      -11.39863         1.96790         3.08865
   H      -10.52997         3.01462         4.23901
   H      -11.11647         1.41714         4.76518
   H       -5.87019         2.17796         2.58172
   H       -7.23280         2.33308         3.71829
   H       -7.54053         2.23409         1.96643
   H       -6.83533        -1.88683         2.13265
   H       -5.19100        -6.56264         3.52240
   H       -7.26760        -7.82390         7.32783
   H      -11.98391        -6.51701         5.52801
   H      -13.05522        -4.27991         5.58423
   H      -11.64615        -2.25218         5.62417
   H       -9.19199        -2.45570         5.59716
   H       -8.13548        -4.66320         5.56483
   H       -6.05733        -7.44663         1.55058
   H       -4.73896        -6.34851        -0.20480
   H       -7.34769        -2.97251        -0.01419
   H       -4.72254        -5.64524        -2.34619
   H       -1.85557        -5.79615        -5.35715
   H       -2.47235        -7.81863        -4.33579
   H       -3.90468        -7.12636        -3.56695
   H       -2.11622        -7.34868        -1.99344
   H       -1.17979        -6.31941        -2.86074
   H       -3.68024        -7.01067        -6.42879
   H       -3.78657        -5.26623        -6.74006
   H       -5.42589        -5.27330        -4.86195
   H       -5.91620        -6.22032        -6.11414
   H       -1.34085        -3.98526        -6.60319
   H        0.01044        -1.86957        -6.50124
   H       -1.06297         0.30621        -5.87306
   H       -2.47197         0.06777        -3.87404
   H       -4.02120        -0.72046        -1.94336
   H       -5.37202        -1.94302        -0.30043
   H       -1.25695        -2.46614        -8.53057
   H       -2.73183         0.06274        -7.66301
   H       -5.84577         1.10854        -6.41763
   H       -5.02088        -3.30037        -6.00925
   H       -3.92687        -3.84403       -11.08306
   H       -5.14926        -3.73366       -13.22243
   H       -7.33827        -2.59145       -13.32541
   H       -8.30627        -1.60134       -11.28648
   H       -7.08838        -1.70256        -9.16225
   H       -5.41931         0.57120       -11.57351
   H       -4.09301        -0.46756       -13.38731
   H       -1.14923        -1.59534       -10.52440
   H       -0.59036        -2.94593       -16.19020
   H       -1.62709        -3.68479       -10.82765
   H       -0.62230        -6.48589        -8.79572
   H       -1.91844        -5.47960        -9.48675
   H       -0.33002        -4.75740        -9.11372
   H        0.72548        -7.57603       -14.81249
   H        1.89871        -8.29861       -13.68293
   H        2.21362        -6.68864       -14.37922
   H        0.47622        -5.24591       -15.06635
*
