# ORCA input file
# SCF done       -196.915370589234          0.000816533529
! CAM-B3LYP def2-SVP def2/J RIJCOSX Grid4 TightSCF
%maxcore 5000
%tddft
    Mode sTDDFT
    Ethresh 5.0
    maxcore 5000
end

%pal
  nprocs 6
  end
* xyz 0 1
   C        6.42234        -5.18161        -3.20919
   C        7.21949        -6.29425        -3.22557
   C        8.08953        -6.62557        -4.28652
   N        8.79544        -6.95371        -5.12921
   C        7.32462        -7.20172        -2.15201
   N        7.46897        -7.94824        -1.29252
   C        6.46960        -4.09479        -4.18588
   C        5.85629        -2.95432        -3.63412
   C        5.78987        -1.76072        -4.32390
   C        6.33893        -1.70421        -5.59892
   C        6.93982        -2.83845        -6.16032
   C        7.01218        -4.03709        -5.45881
  Cl        7.60099        -2.75747        -7.74124
  Cl        6.27704        -0.23850        -6.48859
   C        5.33127        -3.27818        -2.29262
   O        4.78955        -2.54294        -1.50187
   C        5.56376        -4.74133        -2.12743
   C        4.91964        -5.38748        -1.12092
   C        4.69035        -6.77593        -0.92764
   C        4.51392        -7.73589        -1.89303
   C        4.12819        -8.96802        -1.25702
   C        3.71760       -10.17450        -1.82758
   N        3.24557       -11.16465        -2.17440
   C        4.05279        -8.76415         0.09892
   C        4.32751        -7.38491         0.36505
   C        4.17901        -6.77213         1.58524
   C        3.34651        -7.31864         2.69861
   C        3.59428        -6.54754         3.79973
   C        4.52043        -5.50632         3.42659
   C        4.82436        -5.60809         2.08596
   C        5.01742        -4.54442         4.31796
   N        5.41256        -3.76273         5.05929
   C        2.38458        -8.33984         2.49046
   C        1.70154        -9.02373         3.44456
   C        0.80709       -10.10352         3.16725
   C       -0.02409       -10.58601         4.17697
   C       -0.94523       -11.60714         3.98563
   C       -1.07339       -12.27148         2.77177
   C       -0.18794       -11.87921         1.72826
   C        0.72699       -10.77682         1.90500
   N        1.46238       -10.51880         0.82863
  Se        1.04382       -11.63174        -0.46058
   N       -0.15205       -12.43059         0.52407
   C       -2.02070       -13.33332         2.56663
   C       -1.82107       -14.46520         1.83828
   C       -2.95686       -15.34348         2.03375
   C       -3.10524       -16.59299         1.41467
   N       -3.22393       -17.61486         0.90665
   C       -3.84210       -14.75874         2.90065
   C       -3.34797       -13.44912         3.21942
   C       -4.07062       -12.43062         3.78353
   C       -5.32468       -12.54224         4.55976
   C       -5.81003       -11.27364         4.73481
   C       -4.91057       -10.33996         4.09942
   C       -3.85327       -11.02584         3.56232
   C       -5.10090        -8.95086         4.05453
   N       -5.24955        -7.81356         4.02816
   C       -5.83550       -13.73615         5.14124
   C       -7.10902       -13.87789         5.59622
   C       -7.55509       -15.08300         6.18329
   C       -8.83213       -15.31758         6.60981
   C       -9.34033       -16.53997         7.20670
   C       -8.61402       -17.63746         7.58643
   C       -9.17333       -18.79173         8.17711
   N       -9.56192       -19.75549         8.66348
   C       -7.21404       -17.77322         7.46917
   N       -6.08148       -17.95392         7.41278
   C      -10.78340       -16.38134         7.36990
   C      -11.15280       -15.09170         6.94897
   C       -9.95892       -14.35845         6.48008
   O       -9.92658       -13.21724         6.07432
   C      -12.46229       -14.65809         6.99129
   C      -13.43221       -15.53427         7.46162
   C      -13.07467       -16.82250         7.87928
   C      -11.75329       -17.25345         7.83802
  Cl      -14.28312       -17.89788         8.45256
  Cl      -15.07261       -15.03592         7.52707
   H        5.32349        -0.89486        -3.88114
   H        7.47810        -4.89117        -5.92283
   H        4.44541        -4.72429        -0.40317
   H        4.58700        -7.59980        -2.95656
   H        3.90529        -9.53256         0.83131
   H        3.15108        -6.63311         4.77347
   H        5.53484        -5.00152         1.55819
   H        2.16916        -8.58940         1.46327
   H        1.82163        -8.76473         4.48857
   H        0.03619       -10.12460         5.15191
   H       -1.56371       -11.91144         4.81685
   H       -0.95955       -14.70735         1.24752
   H       -4.80473       -15.14908         3.16761
   H       -6.68676       -10.98513         5.28295
   H       -3.06436       -10.60224         2.97236
   H       -5.15340       -14.57157         5.23774
   H       -7.81931       -13.07265         5.49096
   H       -6.82023       -15.87217         6.28038
   H      -12.72253       -13.66368         6.66450
   H      -11.51790       -18.25252         8.16597
*
