# ORCA input file
# SCF done       -229.606814541332          0.000683702519
! CAM-B3LYP def2-SVP def2/J RIJCOSX Grid4 TightSCF
%maxcore 5000
%tddft
    Mode sTDDFT
    Ethresh 5.0
    maxcore 5000
end

%pal
  nprocs 6
  end
* xyz 0 1
   C       10.71979         4.72627         1.90171
   C       10.51904         4.07890         0.71124
   C       10.32958         2.68727         0.59866
   N       10.13680         1.56386         0.45794
   C       10.55397         4.70816        -0.55099
   N       10.64333         5.13718        -1.61185
   C       10.98387         4.07359         3.17977
   C       11.61209         5.01433         4.04746
   C       12.02465         4.66881         5.30178
   C       11.81499         3.34770         5.75758
   C       11.16926         2.40844         4.90286
   C       10.75801         2.79227         3.60592
   C       10.95974         1.09561         5.37197
   C       11.37221         0.72468         6.62256
   C       12.01049         1.64940         7.46254
   C       12.22680         2.93262         7.03934
   C       11.70114         6.32034         3.36804
   O       12.21128         7.33921         3.77609
   C       10.96774         6.14479         2.08287
   C       10.57902         7.23385         1.37543
   C        9.59739         7.31270         0.32787
   C        9.73851         8.28130        -0.67457
   C        8.85020         8.35683        -1.72693
   C        7.77825         7.47607        -1.76265
   C        7.59124         6.54009        -0.72908
   C        8.48671         6.45283         0.30390
   C        6.35862         5.70262        -0.98095
   C        6.73635         4.22632        -1.14440
   C        5.32305         5.87536         0.13398
   C        5.86397         6.28360        -2.28658
   C        4.75805         5.92628        -3.02031
   C        4.48742         6.58711        -4.22259
   C        5.34640         7.59927        -4.65852
   C        6.45217         7.97211        -3.91970
   C        6.71168         7.31313        -2.72670
   C        3.31130         6.22225        -5.01959
   C        3.39319         6.14142        -6.38286
   C        2.25396         5.79018        -7.14717
   C        2.06229         5.63823        -8.51054
   C        3.01139         5.83250        -9.64753
   C        3.08273         7.32158       -10.04915
   N        3.66573         8.11927        -8.98676
   C        4.42863         5.27032        -9.38455
   N        5.15312         4.88656       -10.57824
   C        0.67363         5.27869        -8.69894
   C       -0.03602         5.01816        -9.81140
   C       -1.46997         4.62168        -9.74892
   C       -2.07903         4.69817        -8.38407
   C       -1.35395         4.95129        -7.27819
   C        0.02853         5.23131        -7.37838
   C        0.99943         5.53259        -6.44609
   C        0.95118         5.62695        -5.03573
   C        2.07440         5.95473        -4.34969
   C       -1.57356         3.17935       -10.19324
   C       -2.30927         2.76963       -11.22449
   C       -2.51207         1.39620       -11.65660
   C       -2.09140         0.29602       -10.90116
   C       -2.33534        -0.99805       -11.31465
   C       -3.01248        -1.20619       -12.50810
   C       -3.42931        -0.11266       -13.28476
   C       -3.18560         1.17242       -12.86490
   C       -4.13788        -0.58263       -14.53533
   C       -5.57773        -0.06402       -14.58976
   C       -3.36739        -0.16373       -15.79195
   C       -4.10306        -2.08380       -14.35348
   C       -4.61747        -3.06029       -15.16544
   C       -4.51346        -4.40964       -14.77947
   C       -3.81327        -4.73766       -13.61034
   C       -3.26825        -3.75696       -12.80754
   C       -3.43167        -2.42560       -13.16464
   C       -5.09622        -5.40079       -15.64182
   C       -5.66470        -6.58878       -15.30362
   C       -6.17779        -7.56413       -16.25453
   C       -5.86839        -7.63888       -17.58727
   C       -6.37067        -8.62730       -18.45934
   N       -6.74727        -9.40023       -19.22035
   C       -4.99068        -6.77172       -18.27127
   N       -4.28245        -6.12193       -18.90030
   C       -7.02019        -8.50259       -15.52619
   C       -6.97525        -8.16923       -14.14354
   C       -6.10081        -6.99893       -13.93942
   O       -5.86183        -6.46508       -12.87863
   C       -7.67463        -8.87474       -13.20750
   C       -8.46702        -9.96910       -13.62013
   C       -8.52164       -10.30674       -15.00325
   C       -7.78651        -9.55684       -15.94940
   C       -9.32099       -11.39657       -15.40475
   C      -10.03191       -12.11944       -14.48609
   C       -9.97681       -11.78640       -13.12431
   C       -9.21039       -10.73491       -12.70060
   H       12.50828         5.39426         5.93902
   H       10.26606         2.06254         2.98177
   H       10.47152         0.38625         4.71982
   H       11.21004        -0.28432         6.97133
   H       12.32990         1.33973         8.44643
   H       12.71781         3.64905         7.68170
   H       11.04005         8.16877         1.67978
   H       10.58827         8.94700        -0.63675
   H        8.98980         9.08658        -2.50981
   H        8.33516         5.75160         1.11243
   H        7.11157         3.82275        -0.20629
   H        7.51074         4.11896        -1.90106
   H        5.86906         3.64533        -1.44843
   H        5.72334         5.52245         1.08173
   H        4.42509         5.30686        -0.09585
   H        5.05367         6.92443         0.23930
   H        4.11262         5.12436        -2.69237
   H        5.12495         8.11077        -5.58378
   H        7.10139         8.76222        -4.26592
   H        4.33131         6.32743        -6.87861
   H        2.60048         5.29346       -10.51224
   H        2.06731         7.65046       -10.33567
   H        3.72634         7.42479       -10.92942
   H        3.07956         8.07173        -8.15948
   H        3.72931         9.09062        -9.27020
   H        4.35332         4.38659        -8.74588
   H        5.02392         6.02823        -8.87515
   H        4.63817         4.18749       -11.10375
   H        5.29793         5.68936       -11.18036
   H        0.40743         5.03620       -10.79850
   H       -2.04718         5.23757       -10.45096
   H       -3.13578         4.48501        -8.32927
   H       -1.82277         4.96744        -6.30448
   H        0.01886         5.43986        -4.52256
   H        2.04686         6.05012        -3.27397
   H       -1.01865         2.48932        -9.57533
   H       -2.82875         3.51147       -11.82076
   H       -1.57946         0.45941        -9.96575
   H       -2.01199        -1.83407       -10.71286
   H       -3.51163         2.01706       -13.45571
   H       -5.58606         1.02166       -14.64992
   H       -6.12109        -0.36730       -13.69727
   H       -6.09033        -0.46348       -15.46149
   H       -3.34151         0.92023       -15.87455
   H       -3.84461        -0.56962       -16.68052
   H       -2.34517        -0.53349       -15.74736
   H       -5.13344        -2.81020       -16.08158
   H       -3.67381        -5.77386       -13.35158
   H       -2.72729        -4.02430       -11.91273
   H       -5.12229        -5.12067       -16.68933
   H       -7.62290        -8.60086       -12.16403
   H       -7.85546        -9.83191       -16.98989
   H       -9.35901       -11.64967       -16.45418
   H      -10.64109       -12.95243       -14.80361
   H      -10.54512       -12.36695       -12.41296
   H       -9.16425       -10.47351       -11.65341
*
