# ORCA input file
# SCF done       -241.953242595210          0.000466571742
! CAM-B3LYP def2-SVP def2/J RIJCOSX Grid4 TightSCF
%maxcore 5000
%tddft
    Mode sTDDFT
    Ethresh 5.0
    maxcore 5000
end

%pal
  nprocs 6
  end
* xyz 0 1
   C       -0.95948         3.57251         4.88907
   C       -1.45514         3.05791         3.71961
   C       -1.38126         1.69346         3.37019
   N       -1.32896         0.60155         3.01869
   C       -2.16624         3.78791         2.74508
   N       -2.77693         4.29888         1.91748
   C       -0.46201         2.78145         6.01022
   C       -0.44619         3.60121         7.17669
   C       -0.07778         3.10959         8.39548
   C        0.30639         1.75417         8.50550
   C        0.31541         0.93519         7.33976
   C       -0.07437         1.47055         6.09077
   C        0.70739        -0.41360         7.46068
   C        1.06649        -0.93227         8.67474
   C        1.05382        -0.12595         9.82269
   C        0.68283         1.18866         9.73960
   C       -0.86026         4.96930         6.81792
   O       -0.96775         5.93127         7.54272
   C       -1.04932         4.94645         5.33995
   C       -1.22010         6.10759         4.66204
   C       -1.05058         6.33116         3.26423
   S        0.31592         5.62916         2.45410
   C        0.02322         6.49534         0.99655
   C       -1.15110         7.25222         1.10377
   C       -1.76084         7.15630         2.39985
   C       -3.01580         7.80271         2.63219
   C       -3.81356         7.47351         3.80418
   O       -3.71452         6.48347         4.49023
   C       -4.94139         8.48666         4.17458
   F       -4.52192         9.76416         4.11257
   F       -6.01277         8.39475         3.36792
   F       -5.37099         8.28158         5.41670
   C       -3.54149         8.59513         1.62510
   C       -2.93348         8.68234         0.36894
   C       -1.78362         7.99129         0.08951
   C        0.94495         6.40139        -0.10332
   C        1.17137         7.47076        -0.94127
   C        2.04069         7.33339        -2.04029
   C        2.38355         8.22659        -3.04555
   C        1.90910         9.63469        -3.17074
   C        3.07600        10.63241        -3.07899
   N        3.75529        10.47832        -1.80306
   C        1.09325         9.86695        -4.45493
   N        0.46648        11.17734        -4.40889
   C        3.27927         7.52511        -3.93376
   C        3.86599         7.88218        -5.09211
   C        4.71748         6.93884        -5.86515
   C        4.97145         5.62154        -5.19432
   C        4.36981         5.27396        -4.04229
   C        3.49022         6.17165        -3.39164
   C        2.72364         6.06423        -2.24961
   C        2.51761         5.00408        -1.33643
   C        1.65749         5.17144        -0.30203
   C        6.03218         7.56712        -6.23519
   C        6.65211         7.31183        -7.38947
   C        7.91108         7.87381        -7.78490
   S        8.33784         9.46387        -7.27346
   C        9.66760         9.56688        -8.38426
   C        9.84156         8.33998        -9.04501
   C        8.85289         7.37019        -8.68698
   C        8.94247         6.05497        -9.23952
   C        8.16675         4.95266        -8.68891
   O        7.72990         4.86846        -7.56454
   C        7.91777         3.74457        -9.64444
   F        7.63304         4.12830       -10.89963
   F        8.97372         2.91802        -9.71872
   F        6.88240         3.02135        -9.21685
   C        9.92590         5.80313       -10.18380
   C       10.89123         6.76049       -10.50851
   C       10.88557         7.99842        -9.91957
   C       10.36220        10.78533        -8.51210
   C       10.89859        11.29668        -9.66467
   C       11.70612        12.49517        -9.75893
   C       12.38895        13.08860        -8.72786
   C       13.18623        14.24208        -8.87131
   N       13.84013        15.18410        -8.92867
   C       12.41375        12.59938        -7.40564
   N       12.49241        12.23649        -6.31872
   C       11.74140        12.90208       -11.15793
   C       11.02175        11.94075       -11.92386
   C       10.49387        10.89219       -11.03436
   O        9.80130         9.94813       -11.35900
   C       10.88037        12.05580       -13.27644
   C       11.46563        13.15860       -13.93859
   C       12.18278        14.12740       -13.17889
   C       12.31151        13.98159       -11.77782
   C       12.75559        15.22683       -13.84934
   C       12.62884        15.36387       -15.20522
   C       11.92383        14.40878       -15.95224
   C       11.35515        13.32903       -15.33233
   H       -0.08347         3.74648         9.26755
   H       -0.05114         0.82836         5.22436
   H        0.71172        -1.03128         6.57452
   H        1.36114        -1.96775         8.75772
   H        1.33914        -0.55186        10.77306
   H        0.67112         1.81436        10.62010
   H       -1.40632         6.98299         5.27750
   H       -4.48344         9.10121         1.75775
   H       -3.41789         9.26076        -0.40236
   H       -1.38127         7.97770        -0.91104
   H        0.71784         8.42747        -0.73332
   H        1.24304         9.84219        -2.32531
   H        2.66558        11.64015        -3.24973
   H        3.80679        10.42389        -3.86289
   H        3.12663        10.70377        -1.03899
   H        4.54679        11.10923        -1.74668
   H        0.37145         9.03884        -4.56329
   H        1.75201         9.85080        -5.32523
   H       -0.22085        11.21459        -3.66302
   H       -0.01294        11.37366        -5.28018
   H        3.73759         8.86291        -5.52738
   H        4.18281         6.72057        -6.80465
   H        5.65897         4.96436        -5.70323
   H        4.55254         4.30644        -3.59833
   H        3.03811         4.06879        -1.47699
   H        1.47118         4.36683         0.39450
   H        6.49758         8.18640        -5.48130
   H        6.18623         6.65173        -8.10901
   H       10.02058         4.82474       -10.62656
   H       11.67235         6.49637       -11.20386
   H       11.68249         8.70092       -10.10233
   H       10.39217        11.39861        -7.61881
   H       10.32919        11.31368       -13.83482
   H       12.85340        14.73513       -11.22844
   H       13.29855        15.95925       -13.27021
   H       13.07164        16.20964       -15.70946
   H       11.83286        14.53266       -17.02097
   H       10.81036        12.59049       -15.90217
*
