# ORCA input file
# SCF done       -118.357529631541          0.000373851600
! CAM-B3LYP def2-SVP def2/J RIJCOSX Grid4 TightSCF
%maxcore 5000
%tddft
    Mode sTDDFT
    Ethresh 5.0
    maxcore 5000
end

%pal
  nprocs 6
  end
* xyz 0 1
   C        6.44044        -0.80348        -7.81632
   C        5.70863        -0.83729        -6.70338
   C        5.12369         0.30169        -6.06518
   S        5.30757         1.91481        -6.69365
   C        4.34622         2.57193        -5.40104
   S        4.00340         4.27888        -5.24909
   C        4.82577         4.93520        -6.72757
   C        3.91480         1.60628        -4.54303
   C        4.35378         0.30969        -4.91281
   C        4.04126        -0.84304        -4.18539
   C        3.76295        -1.83164        -3.54251
   C        3.44929        -2.96981        -2.80594
   C        2.58085        -3.12304        -1.73075
   C        2.62060        -4.46031        -1.34585
   C        3.51570        -5.11498        -2.18869
   C        3.91224        -6.47733        -2.20174
   S        5.09319        -7.07650        -3.35313
   C        5.01970        -8.70585        -2.72586
   C        5.78496        -9.72212        -3.25034
   C        6.46465       -10.61790        -3.71542
   C        7.23455       -11.64812        -4.22886
   C        8.17573       -11.63024        -5.25735
   C        8.67394       -12.92054        -5.38788
   C        8.04027       -13.72807        -4.44239
   C        8.16791       -15.11336        -4.14371
   C        9.00955       -15.96185        -4.77541
   C        9.13901       -17.34845        -4.48348
   C        8.49229       -18.14007        -3.56252
   C        8.89951       -19.47960        -3.57923
   C        9.86656       -19.73280        -4.51564
   S       10.60192       -21.28836        -4.80851
   C       11.75038       -20.88449        -6.15359
   S       10.28757       -18.29948        -5.39569
   N        7.17330       -12.92853        -3.75481
   C        4.11309        -8.76823        -1.67258
   C        3.65697        -9.79136        -0.81225
   C        2.73843        -9.33359         0.08568
   C        2.04278       -10.07823         1.12926
   O        1.24096        -9.60262         1.89582
   O        2.40220       -11.37737         1.13934
   C        1.76952       -12.17412         2.12884
   S        2.37882        -7.62400        -0.06935
   C        3.50254        -7.51265        -1.39111
   N        4.00330        -4.19071        -3.06595
   H        6.85217        -1.69729        -8.24928
   H        6.64717         0.12352        -8.32586
   H        5.50878        -1.77690        -6.20290
   H        4.65776         6.00725        -6.71882
   H        4.38514         4.49176        -7.61602
   H        5.88953         4.72011        -6.67868
   H        3.30834         1.80696        -3.67922
   H        1.99279        -2.34317        -1.28977
   H        2.06949        -4.91592        -0.54800
   H        8.45116       -10.76763        -5.83113
   H        9.41525       -13.24195        -6.09174
   H        7.53372       -15.48637        -3.34992
   H        9.64330       -15.58458        -5.56543
   H        7.74106       -17.76671        -2.89071
   H        8.50545       -20.24268        -2.93318
   H       12.25917       -21.80820        -6.40920
   H       12.46511       -20.14205        -5.81005
   H       11.19220       -20.51171        -7.00771
   H        6.57434       -13.23372        -3.00537
   H        3.98783       -10.81270        -0.85135
   H        2.13935       -13.18610         1.98527
   H        0.68471       -12.13978         2.00799
   H        2.02190       -11.81093         3.12740
   H        4.67445        -4.38084        -3.79216
*
