# ORCA input file
# SCF done       -184.670789197972          0.000938688708
! CAM-B3LYP def2-SVP def2/J RIJCOSX Grid4 TightSCF
%maxcore 5000
%tddft
    Mode sTDDFT
    Ethresh 5.0
    maxcore 5000
end

%pal
  nprocs 6
  end
* xyz 0 1
   C       11.78860        -7.15643       -11.60718
   C       12.30092        -6.42413       -10.63308
   C       12.32851        -4.94797       -10.65767
   C       13.16455        -4.33422       -11.58281
   C       13.30583        -2.95377       -11.66873
   C       12.60070        -2.12461       -10.82286
   C       11.73760        -2.70590        -9.90412
   C       10.86283        -2.14215        -8.91843
   C       10.65011        -0.83407        -8.51604
   C        9.76244        -0.59947        -7.48122
   C        9.08826        -1.64889        -6.88277
   C        9.24791        -2.98203        -7.28257
   C        8.41959        -3.99571        -6.67436
   C        7.98579        -3.98352        -5.39589
   C        7.14473        -4.99429        -4.85864
   S        6.55611        -6.33051        -5.80373
   C        5.72003        -7.05002        -4.44942
   C        5.11890        -8.30397        -4.73603
   C        4.62436        -9.22724        -3.87495
   C        4.12165       -10.49158        -4.26699
   S        3.68917       -11.63879        -3.02936
   C        3.24439       -12.86383        -4.18527
   C        2.84192       -14.13840        -3.71905
   C        2.45219       -15.18099        -4.49160
   C        2.13456       -16.46156        -3.97652
   S        2.26597       -16.87203        -2.28991
   C        1.81467       -18.53872        -2.55471
   C        1.74260       -19.31674        -1.36834
   C        1.40017       -20.61937        -1.22116
   C        1.42818       -21.32198         0.03564
   C        2.36238       -20.96261         1.01895
   C        2.54513       -21.68857         2.18088
   C        1.78817       -22.82107         2.43233
   C        0.82987       -23.19329         1.50611
   C       -0.12758       -24.26160         1.49408
   C       -0.40318       -25.30860         2.36314
   C       -1.43111       -26.17340         2.04501
   C       -2.17868       -25.99976         0.88245
   C       -1.92230       -24.96307         0.00530
   C       -0.88821       -24.09126         0.31780
   N       -0.42876       -22.98813        -0.37280
   C       -1.08822       -22.49266        -1.55524
   C       -0.62930       -23.20514        -2.82569
   C        0.62612       -22.44731         0.31277
   C        1.55732       -18.74087        -3.91327
   N        1.17888       -19.93809        -4.56805
   O        1.45003       -21.00956        -4.05381
   O        0.61032       -19.82433        -5.63714
   C        1.72718       -17.56904        -4.70260
   C        1.56253       -17.50300        -6.10053
   N        1.48434       -17.34668        -7.23378
   C        3.40997       -12.37286        -5.47279
   S        3.10595       -13.15691        -7.00022
   C        3.61272       -11.79471        -8.02538
   O        3.59560       -11.82410        -9.21339
   S        4.15733       -10.37148        -7.09964
   C        3.90731       -11.05580        -5.51729
   C        5.88912        -6.25213        -3.31910
   N        5.32210        -6.44150        -2.03190
   O        4.37811        -7.20032        -1.90990
   O        5.81390        -5.81151        -1.11653
   C        6.69534        -5.10322        -3.55127
   C        7.01025        -4.11988        -2.59318
   N        7.31228        -3.25122        -1.90799
   C       10.18151        -3.22672        -8.30895
   N       10.65135        -4.40141        -8.84317
   C       10.23087        -5.73022        -8.48073
   C        9.06875        -6.22297        -9.34329
   C       11.59120        -4.10892        -9.81670
   H       11.81371        -8.23284       -11.58822
   H       11.30908        -6.70135       -12.45867
   H       12.79430        -6.89970        -9.79236
   H       13.73354        -4.96628       -12.24899
   H       13.97642        -2.53656       -12.40446
   H       12.70425        -1.05195       -10.87422
   H       11.17386        -0.02254        -8.99662
   H        9.58110         0.40865        -7.14165
   H        8.37037        -1.43354        -6.10634
   H        8.08102        -4.80911        -7.30169
   H        8.29846        -3.21690        -4.70085
   H        5.12997        -8.54619        -5.79166
   H        4.60092        -9.03606        -2.81313
   H        2.87527       -14.26667        -2.64418
   H        2.37959       -15.08107        -5.56563
   H        1.98159       -18.74410        -0.47998
   H        1.15434       -21.20141        -2.09259
   H        3.00838       -20.11950         0.82902
   H        3.29896       -21.37610         2.88736
   H        1.93554       -23.40116         3.33002
   H        0.17708       -25.44193         3.26340
   H       -1.66195       -26.99809         2.70231
   H       -2.97614       -26.69308         0.66014
   H       -2.51138       -24.84993        -0.89165
   H       -0.91257       -21.41629        -1.62896
   H       -2.16441       -22.64629        -1.42082
   H        0.42247       -23.02114        -3.02821
   H       -1.20518       -22.84792        -3.67518
   H       -0.77715       -24.27795        -2.72898
   H        9.95850        -5.72687        -7.42167
   H       11.07692        -6.40660        -8.60458
   H        8.25608        -5.50008        -9.35709
   H        8.69316        -7.16756        -8.95871
   H        9.40571        -6.37300       -10.36625
*
