# ORCA input file
# SCF done       -174.802366248459          0.000535028522
! CAM-B3LYP def2-SVP def2/J RIJCOSX Grid4 TightSCF
%maxcore 5000
%tddft
    Mode sTDDFT
    Ethresh 5.0
    maxcore 5000
end

%pal
  nprocs 6
  end
* xyz 0 1
   C        6.30653        -0.87284        -1.74797
   C        6.06806        -0.20417        -0.39432
   C        6.76452        -0.92739         0.71683
   C        6.67684        -2.31902         0.89223
   C        7.46783        -2.81760         1.89984
   C        7.57886        -4.17996         2.30284
   C        8.40986        -4.60872         3.27265
   C        8.57483        -5.96818         3.71410
   C        7.80422        -7.03101         3.33202
   F        6.76368        -7.01125         2.49927
   S        8.24356        -8.55471         4.02912
   C        9.51525        -7.75247         4.86603
   F       10.30901        -8.48837         5.63831
   C        9.60621        -6.40033         4.64014
   C       10.57153        -5.52212         5.23050
   C       11.54071        -5.87320         6.10825
   C       12.44258        -4.92427         6.65060
   C       13.33259        -5.13420         7.65891
   C       14.47595        -4.20475         7.85487
   O       14.60861        -3.10185         7.38111
   C       15.43462        -4.95329         8.70019
   C       16.71296        -4.59135         9.07817
   C       17.43481        -5.48804         9.84916
   F       18.67808        -5.17970        10.23442
   C       16.88073        -6.71331        10.22449
   F       17.60741        -7.56439        10.95525
   C       15.59367        -7.07376         9.85475
   C       14.86484        -6.18049         9.08578
   C       13.49635        -6.24757         8.57182
   C       12.50977        -7.06797         9.04693
   C       12.73478        -8.10412         9.97915
   N       12.87065        -8.96718        10.72245
   C       11.13604        -6.90640         8.75823
   N       10.00517        -6.78602         8.60812
   S        8.36765        -1.53535         2.65293
   C        7.62623        -0.34347         1.62401
   C        8.02347         1.02558         1.81385
   C        7.26751         2.13226         1.73841
   C        5.82588         2.21311         1.59671
   C        4.91042         1.36777         2.14575
   F        5.15720         0.28537         2.87452
   S        3.25108         1.80429         1.86815
   C        3.80519         3.19441         1.02142
   F        2.91463         3.99979         0.44584
   C        5.16849         3.31713         0.93756
   C        5.88760         4.31206         0.19902
   C        5.55160         5.57740        -0.14399
   C        6.32869         6.24213        -1.23553
   O        7.37364         5.86520        -1.70555
   C        5.51483         7.40944        -1.63094
   C        5.72300         8.28970        -2.67586
   C        4.79153         9.29762        -2.86276
   F        4.95171        10.17057        -3.86181
   C        3.68245         9.40967        -2.02040
   F        2.79443        10.38317        -2.23553
   C        3.47784         8.53317        -0.96565
   C        4.40847         7.52479        -0.76987
   C        4.49087         6.48532         0.25502
   C        3.84935         6.51466         1.46092
   C        4.13774         5.62443         2.51520
   N        4.36337         4.92220         3.39373
   C        2.88407         7.48106         1.82014
   N        2.09016         8.23604         2.15790
   H        5.87788        -1.87055        -1.77689
   H        7.37269        -0.94952        -1.94840
   H        5.84861        -0.28198        -2.53760
   H        4.99261        -0.17658        -0.19074
   H        6.42800         0.82455        -0.44001
   H        6.04296        -2.95195         0.29745
   H        6.94754        -4.86638         1.75860
   H        9.02063        -3.86923         3.77066
   H       10.48479        -4.47723         4.96768
   H       11.66444        -6.90165         6.40588
   H       12.49296        -3.94959         6.17700
   H       17.14031        -3.64543         8.78584
   H       15.20937        -8.03186        10.16488
   H        9.06925         1.15531         2.06493
   H        7.75516         3.09250         1.83541
   H        6.83249         3.97073        -0.21494
   H        6.57827         8.20007        -3.32654
   H        2.60481         8.65518        -0.34544
*
