# ORCA input file
# SCF done       -165.035215631111          0.000174514941
! CAM-B3LYP def2-SVP def2/J RIJCOSX Grid4 TightSCF
%maxcore 5000
%tddft
    Mode sTDDFT
    Ethresh 5.0
    maxcore 5000
end

%pal
  nprocs 6
  end
* xyz 0 1
   C        1.99638       -12.96819         6.69355
   C        3.07144       -12.77110         5.93518
   C        3.18158       -11.92126         4.77629
   S        4.79066       -11.48866         4.26754
   C        4.17434       -10.57765         2.93093
   C        5.10095        -9.89097         2.04341
   C        5.95893        -8.89264         2.52803
   C        6.07798        -8.36526         3.83310
   C        7.02605        -7.38631         3.92329
   C        7.39786        -6.66782         5.09127
   N        8.40922        -5.86760         5.18736
   C        8.50593        -5.35690         6.41863
   S        9.65040        -4.28531         7.11719
   C        8.81275        -4.37847         8.65389
   C        9.34648        -3.73083         9.83767
   C        9.49893        -4.47067        11.02548
   C        9.20282        -5.82594        11.29748
   C        9.48425        -6.20363        12.58175
   C        9.28040        -7.46747        13.21276
   C        8.64537        -8.51244        12.64133
   C        8.41820        -9.76856        13.27088
   S        9.02332       -10.11450        14.87237
   C        8.31809       -11.67213        14.84060
   C        7.65346       -11.92758        13.67547
   C        7.71482       -10.84433        12.76581
   C        7.02976       -10.88194        11.43572
   C        6.71110       -12.31764        11.02208
   C        6.02993       -13.06682        12.16192
   C        6.95883       -13.20753        13.36348
   S        8.20520       -14.55292        13.10348
   S       10.16969        -4.88430        13.52187
   C       10.06028        -3.82242        12.16045
   N       10.46818        -2.57197        12.19651
   C       10.31127        -1.88786        11.08546
   S       10.76938        -0.20978        10.97662
   C       10.16681        -0.16634         9.34369
   F       10.21421         0.96891         8.65634
   C        9.66963        -1.34857         8.90478
   F        9.11303        -1.49668         7.69497
   C        9.75321        -2.38851         9.88024
   C        7.71179        -5.19760         8.61386
   C        7.53100        -5.75217         7.34309
   S        6.43779        -6.84879         6.58498
   S        7.81993        -7.04935         2.39825
   C        6.84198        -8.24864         1.61840
   N        6.91902        -8.50895         0.32902
   C        6.11752        -9.45156        -0.11184
   S        6.10120        -9.93759        -1.78590
   C        4.90747       -11.15190        -1.41168
   F        4.45283       -11.94773        -2.37407
   C        4.53829       -11.17849        -0.10859
   F        3.65739       -12.06148         0.39028
   C        5.20377       -10.19264         0.68039
   C        2.80389       -10.59778         2.89781
   C        2.23560       -11.36968         3.94445
   C        0.75847       -11.57940         4.05194
   C        0.06681       -11.20652         2.74395
   C        0.51022        -9.81277         2.31397
   C        1.97572        -9.85122         1.90077
   S        2.63455        -8.12495         1.73308
   H        2.03918       -13.63211         7.53962
   H        1.05702       -12.47676         6.52238
   H        3.99691       -13.26879         6.19921
   H        5.48971        -8.69517         4.67069
   H        8.81553        -6.50146        10.55829
   H        9.64924        -7.56039        14.22508
   H        8.25306        -8.41769        11.63863
   H        8.43508       -12.32718        15.68130
   H        7.65076       -10.40548        10.67404
   H        6.09809       -10.30964        11.50514
   H        7.63274       -12.83455        10.74462
   H        6.06129       -12.30824        10.14573
   H        5.71689       -14.05821        11.83098
   H        5.13924       -12.51607        12.47635
   H        6.40689       -13.57025        14.23442
   H        8.94014       -13.90157        12.20500
   H        7.05111        -5.35084         9.44709
   H        0.36181       -10.95413         4.85864
   H        0.55658       -12.62254         4.30544
   H       -1.01533       -11.23064         2.87895
   H        0.32992       -11.92776         1.96728
   H        0.38684        -9.11659         3.14713
   H       -0.09557        -9.45493         1.47889
   H        2.07507       -10.30559         0.91125
   H        1.70805        -7.72768         0.86392
*
