# ORCA input file
# SCF done       -107.015634106698          0.000589628358
! CAM-B3LYP def2-SVP def2/J RIJCOSX Grid4 TightSCF
%maxcore 5000
%tddft
    Mode sTDDFT
    Ethresh 5.0
    maxcore 5000
end

%pal
  nprocs 6
  end
* xyz 0 1
   C        2.72412        -0.37429         0.28901
   C        1.26168        -0.10001         0.24260
   C        0.29456        -1.08145         0.23601
   C        0.40782        -2.50154         0.32713
   C       -0.60100        -3.44387         0.22683
   C        0.02359        -4.68181         0.42994
   S       -0.29847        -6.36836         0.52008
   C        1.40167        -6.69730         0.85405
   C        1.78650        -8.05225         1.06587
   C        3.03578        -8.46808         1.36029
   C        3.39561        -9.82958         1.58694
   C        2.67675       -11.01273         1.58348
   N        3.48176       -12.05808         1.86956
   C        4.67379       -11.55625         2.04886
   N        4.68208       -10.21372         1.89060
   C        2.16600        -5.54863         0.88281
   C        1.38106        -4.41860         0.64426
   O        1.61417        -3.09476         0.57862
   S       -1.31431        -0.41355         0.12715
   C       -0.70985         1.21288         0.07841
   C       -1.58736         2.32029         0.03697
   C       -2.94042         2.20482         0.00352
   C       -3.84712         3.28967        -0.00910
   C       -3.58867         4.65029         0.00651
   C       -4.77333         5.38208         0.01108
   O       -5.08607         6.69193         0.03476
   C       -6.44882         6.75693         0.03700
   C       -7.08060         8.04227         0.07147
   C       -6.49650         9.29036         0.11063
   N       -7.52860        10.17808         0.13881
   C       -8.67543         9.45180         0.11637
   N       -8.44329         8.17533         0.07669
   C       -7.02377         5.50429         0.01316
   C       -5.94421         4.60811        -0.00301
   S       -5.57701         2.93182        -0.02497
   C        0.68728         1.19931         0.15735
   N        1.46498         2.38083         0.17606
   O        2.59051         2.31991         0.63838
   O        0.97784         3.41030        -0.26407
   H        2.93064        -1.39835        -0.00302
   H        3.10047        -0.21449         1.29884
   H        3.26293         0.30802        -0.36448
   H       -1.63479        -3.24560         0.03356
   H        0.99424        -8.78274         0.98795
   H        3.83728        -7.74614         1.44223
   H        1.63383       -11.16194         1.39303
   H        5.54734       -12.12680         2.29257
   H        5.47251        -9.59632         1.97588
   H        3.22248        -5.52856         1.06840
   H       -1.12628         3.29575         0.03021
   H       -3.38200         1.21571        -0.00980
   H       -2.60223         5.07273         0.01277
   H       -5.46851         9.58468         0.11943
   H       -7.44482        11.18113         0.17126
   H       -9.65082         9.89460         0.13079
   H       -8.07276         5.29936         0.01020
*
