# ORCA input file
# SCF done       -135.749073134813          0.000608618791
! CAM-B3LYP def2-SVP def2/J RIJCOSX Grid4 TightSCF
%maxcore 5000
%tddft
    Mode sTDDFT
    Ethresh 5.0
    maxcore 5000
end

%pal
  nprocs 6
  end
* xyz 0 1
   C        5.81139         3.22410        -0.48361
   O        5.65037         1.84631        -0.20456
   C        4.46394         1.31424        -0.53944
   C        3.34342         1.90427        -1.13568
   C        2.39601         0.89495        -1.24885
   C        1.08985         0.97285        -1.77763
   C        0.45625         2.07468        -2.32085
   C        0.59938         3.46772        -2.63630
   O        1.50387         4.25171        -2.49196
   O       -0.62286         3.83977        -3.21394
   C       -1.45456         2.77638        -3.25351
   C       -0.86416         1.67669        -2.72955
   C       -1.02189         0.25564        -2.40910
   O       -1.93758        -0.51011        -2.56366
   N        0.21059        -0.08441        -1.83704
   O        2.88171        -0.26870        -0.75868
   C        4.14052        -0.03508        -0.31992
   C        4.90649        -1.06740         0.27034
   C        4.43138        -2.32989         0.41113
   C        5.11214        -3.41092         1.01935
   S        6.74423        -3.26306         1.61080
   C        6.74416        -4.92181         2.13185
   C        7.88272        -5.46221         2.78722
   C        9.16044        -4.93905         2.92457
   C        9.89740        -5.88398         3.65452
   O       11.16930        -5.86845         4.05242
   C       11.92997        -4.72845         3.71125
   C        9.00936        -6.93537         3.93804
   C        9.16995        -8.12673         4.66825
   C        8.23789        -9.06040         5.06400
   C        6.83258        -9.39375         5.09009
   O        5.83523        -8.84067         4.67583
   N        6.80927       -10.61596         5.78836
   C        8.04889       -11.01633         6.19554
   C        8.95320       -10.08835         5.77295
   C       10.35108        -9.71144         5.77871
   O       11.33290       -10.22586         6.23144
   O       10.41238        -8.49352         5.09026
   O        7.79540        -6.65538         3.39636
   C        5.54494        -5.55491         1.84340
   C        4.62150        -4.69360         1.22939
   C        3.23772        -5.13260         0.84656
   C        2.18919        -4.13191         1.26124
   O        1.25622        -3.78832         0.59103
   C        2.89232        -6.45800         1.55053
   C        4.02381        -7.45985         1.35777
   C        5.27242        -6.99641         2.10287
   H        5.07487         3.82404         0.05744
   H        5.71946         3.42252        -1.55472
   H        6.81360         3.48049        -0.14669
   H        3.19529         2.91619        -1.45531
   H       -2.42690         2.94218        -3.67767
   H        0.41899        -1.00804        -1.48640
   H        5.89127        -0.79167         0.61642
   H        3.44120        -2.54181         0.03480
   H        9.49122        -3.99955         2.53214
   H       12.92200        -4.90065         4.12309
   H       11.50175        -3.82214         4.14933
   H       11.99830        -4.60941         2.62599
   H        5.95216       -11.11136         5.97913
   H        8.19292       -11.92246         6.75233
   H        3.17601        -5.27721        -0.23899
   H        2.32743        -3.75300         2.29281
   H        1.95859        -6.84547         1.14086
   H        2.74959        -6.27781         2.61831
   H        4.23928        -7.56150         0.29173
   H        3.72311        -8.43575         1.73821
   H        6.13617        -7.59236         1.80239
   H        5.15446        -7.16602         3.17636
*
