# ORCA input file
# SCF done       -175.636847115846          0.000323989435
! CAM-B3LYP def2-SVP def2/J RIJCOSX Grid4 TightSCF
%maxcore 5000
%tddft
    Mode sTDDFT
    Ethresh 5.0
    maxcore 5000
end

%pal
  nprocs 6
  end
* xyz 0 1
   N        8.75608        -6.05665        -4.50219
   C        7.62806        -5.96951        -5.43096
   C        7.14892        -4.54480        -5.50443
   N        7.58605        -3.87689        -6.54370
   C        7.20464        -2.59125        -6.66105
   C        7.56417        -1.71654        -7.68995
   C        8.39357        -1.98706        -8.78760
   C        8.71093        -1.08461        -9.75764
   C        9.53971        -1.32544       -10.87112
   C        9.87890        -0.43276       -11.87336
   C        9.69030         0.91257       -12.33989
   O        9.06424         1.84924       -11.91756
   O       10.44468         0.99499       -13.52629
   C       11.04321        -0.18766       -13.77073
   C       10.74392        -1.09477       -12.81032
   C       10.93691        -2.46724       -12.33977
   O       11.56998        -3.39524       -12.77632
   N       10.17548        -2.51556       -11.16856
   S        6.81119        -0.16017        -7.42160
   C        6.03397        -0.67402        -5.96363
   O        5.25575         0.02590        -5.15673
   C        4.85746         1.31234        -5.27466
   C        5.09436         2.24174        -6.29888
   C        4.50359         3.45750        -6.03726
   C        4.47369         4.71105        -6.80863
   O        3.88115         5.67708        -6.40923
   O        5.13577         4.72720        -7.97380
   S        3.65203         3.47673        -4.53443
   C        4.07951         1.82809        -4.22500
   C        3.70432         1.09984        -3.07456
   C        2.97973         1.59931        -2.03869
   C        2.62757         0.85711        -0.89531
   S        3.03175        -0.80955        -0.65269
   C        2.27859        -0.86167         0.91248
   C        2.31171        -2.04886         1.65901
   C        2.87553        -3.25948         1.31730
   C        3.59100        -3.95785         0.28101
   O        3.96778        -3.61270        -0.82220
   N        3.78541        -5.23435         0.83101
   C        3.25103        -5.34967         2.08344
   C        2.67723        -4.15641         2.41671
   C        1.95376        -3.41341         3.43424
   O        1.55249        -3.70516         4.52207
   O        1.76390        -2.13178         2.90054
   C        1.71690         0.38563         1.23859
   N        1.06145         0.69501         2.36434
   C        0.61860         1.92394         2.48647
   C       -0.15342         2.21291         3.73404
   C       -1.65584         1.96205         3.49329
   O       -2.42727         2.19606         4.63815
   C        0.82017         2.89971         1.45779
   C        0.42084         4.34603         1.61741
   N        1.43338         5.11214         2.33094
   N        1.46034         2.60863         0.34858
   C        1.91629         1.35470         0.21343
   C        6.34490        -2.00934        -5.68301
   N        5.90150        -2.70778        -4.62684
   C        6.29285        -3.95375        -4.51343
   C        5.79797        -4.65940        -3.29667
   C        6.81801        -4.60151        -2.13010
   O        7.57492        -5.76657        -1.98954
   H        9.13420        -6.99819        -4.50322
   H        9.49464        -5.42481        -4.79578
   H        6.83664        -6.62374        -5.05701
   H        7.89280        -6.27924        -6.45211
   H        8.77626        -2.99873        -8.81036
   H        8.30975        -0.08128        -9.70277
   H       11.65005        -0.24709       -14.65485
   H       10.10963        -3.35112       -10.60924
   H        5.66456         2.02596        -7.18486
   H        5.57974         3.89654        -8.18585
   H        4.03989         0.07051        -3.04137
   H        2.64111         2.62722        -2.05048
   H        4.28263        -5.96666         0.34692
   H        3.31865        -6.26530         2.63902
   H       -0.00759         3.24312         4.06520
   H        0.18212         1.53049         4.51565
   H       -1.80918         0.91094         3.24095
   H       -2.00670         2.57926         2.65155
   H       -2.33216         3.11673         4.90829
   H       -0.52397         4.44082         2.15571
   H        0.30868         4.78749         0.62558
   H        2.29313         5.13552         1.79354
   H        1.64149         4.69249         3.23154
   H        5.56998        -5.70550        -3.49966
   H        4.89602        -4.14603        -2.96504
   H        6.26190        -4.48190        -1.19865
   H        7.46252        -3.71937        -2.25422
   H        8.10024        -5.89320        -2.80743
*
