# ORCA input file
# SCF done       -146.075509976751          0.000956662382
! CAM-B3LYP def2-SVP def2/J RIJCOSX Grid4 TightSCF
%maxcore 5000
%tddft
    Mode sTDDFT
    Ethresh 5.0
    maxcore 5000
end

%pal
  nprocs 6
  end
* xyz 0 1
   C        3.44143        -1.51685        -1.55739
   C        2.39295        -1.39652        -0.44880
   C        2.62726        -0.17521         0.38541
   C        3.39166        -0.24036         1.55543
   C        3.52847         0.95558         2.22971
   C        4.22358         1.25558         3.43143
   C        4.92570         0.35128         4.15572
   C        5.62582         0.62577         5.35929
   C        5.75920         1.81077         6.05771
   C        6.53788         1.65072         7.20410
   N        6.98587         2.44207         8.22909
   C        7.73437         1.65882         9.06843
   C        8.45094         1.83098        10.25143
   C        9.03689         0.65001        10.66936
   C        9.84217         0.40379        11.80952
   C       10.17816         1.34217        12.72831
   C       10.98591         1.10739        13.86675
   S       11.65552        -0.46212        14.20090
   C       12.42992         0.07635        15.62059
   C       12.20383         1.41427        15.86336
   C       12.69180         2.18280        16.94573
   C       12.36769         3.50468        17.03245
   C       11.55451         4.11196        16.05972
   C       11.05864         3.39794        14.98846
   C       10.25148         4.09547        14.06566
   N        9.60308         4.72370        13.35550
   C       11.37199         2.01627        14.85739
   S        8.69506        -0.69527         9.58191
   C        7.76441         0.33794         8.56752
   C        7.01076         0.33340         7.39407
   S        6.47798        -0.71001         6.13325
   S        2.67118         2.20831         1.38320
   C        2.15518         1.10606         0.12636
   C        1.34778         1.66273        -0.90345
   C        0.96129         1.08096        -2.06357
   C        0.12825         1.69110        -3.04087
   C       -0.47550         2.93278        -3.05588
   C       -1.22763         3.12741        -4.21653
   N       -2.01125         4.11864        -4.74889
   C       -2.49000         3.67319        -5.95385
   C       -3.32139         4.16114        -6.96593
   C       -3.47221         3.24580        -7.98700
   C       -4.24985         3.34854        -9.17450
   S       -4.82695         1.90694        -9.94403
   C       -5.64320         2.77945       -11.16148
   C       -5.48578         4.13617       -11.01015
   C       -6.01095         5.17392       -11.83718
   C       -6.82468         4.83852       -12.93784
   N       -7.48737         4.56441       -13.83345
   C       -5.70762         6.48309       -11.55145
   C       -4.87171         6.80572       -10.46764
   C       -4.36164         5.83801        -9.64675
   C       -4.67398         4.48239        -9.87544
   S       -2.58145         1.75145        -7.69247
   C       -2.00073         2.37369        -6.19578
   C       -1.20547         2.02947        -5.10193
   S       -0.23721         0.74780        -4.48550
   H        3.24239        -2.39100        -2.17298
   H        4.43379        -1.61679        -1.12339
   H        3.43844        -0.63417        -2.19276
   H        2.46122        -2.27472         0.19716
   H        1.38915        -1.37610        -0.87502
   H        3.83206        -1.15736         1.90490
   H        4.16974         2.28274         3.76330
   H        4.97668        -0.67354         3.81619
   H        5.31239         2.73611         5.74530
   H        6.80095         3.42272         8.34718
   H        8.54499         2.76013        10.78217
   H       10.20109        -0.61041        11.93132
   H        9.81800         2.35150        12.60805
   H       13.01043        -0.60722        16.20676
   H       13.31499         1.70592        17.68688
   H       12.73241         4.10456        17.85236
   H       11.31076         5.16039        16.15035
   H        1.03406         2.68144        -0.71444
   H        1.28837         0.08583        -2.31546
   H       -0.37429         3.65232        -2.26492
   H       -2.20626         5.00932        -4.32658
   H       -3.82864         5.10690        -6.93415
   H       -6.19398         2.26269       -11.92173
   H       -6.10184         7.27153       -12.17550
   H       -4.62831         7.84290       -10.29324
   H       -3.69893         6.10463        -8.83941
*
