# ORCA input file
# SCF done       -175.265991287980          0.000794707097
! CAM-B3LYP def2-SVP def2/J RIJCOSX Grid4 TightSCF
%maxcore 5000
%tddft
    Mode sTDDFT
    Ethresh 5.0
    maxcore 5000
end

%pal
  nprocs 6
  end
* xyz 0 1
   C       -1.42431         0.86456        -2.13117
   C       -1.11186         1.30673        -0.92726
   C        0.01370         2.25849        -0.64098
   C        1.20433         1.44876        -0.10403
   C        2.34884         2.38350         0.25300
   C        1.99674         3.29554         1.43493
   C        2.89995         4.53421         1.38214
   C        0.54355         3.68860         1.40388
   C       -0.03591         4.52111         2.34175
   C        0.52116         4.98731         3.57277
   C       -0.07290         5.92721         4.32896
   N        0.33540         6.41897         5.54213
   C        1.54209         5.97282         6.20240
   C        2.59843         7.06135         6.04802
   O        3.39772         7.07940         5.14988
   C        2.43339         8.19923         7.04861
   N        1.39389         9.08480         6.57219
   C        1.66326        10.32340         6.04415
   C        2.86566        10.88879         5.84682
   C        3.02813        12.19626         5.29181
   S        1.65066        13.14917         4.81648
   C        2.67823        14.44097         4.24208
   C        2.07236        15.66539         3.80051
   S        2.76305        17.20928         4.24424
   C        1.48196        18.04617         3.46232
   C        0.57046        17.20629         2.90422
   C        0.90208        15.84074         3.10449
   C        0.03782        14.73284         2.58927
   C       -0.85047        15.23583         1.44842
   C       -0.05128        15.43620         0.18726
   O       -0.19473        16.32057        -0.60821
   C       -1.59866        16.50101         1.87419
   C       -0.62258        17.65139         2.11756
   C        4.00713        14.11606         4.38942
   C        4.20286        12.86677         5.02706
   C        5.56495        12.36904         5.43252
   C        5.57635        11.83152         6.83471
   C        6.21276        10.73711         7.20994
   C        6.56396        13.53320         5.36215
   C        6.47297        14.21389         4.00636
   C        5.13724        14.94475         3.83884
   C        4.92151        15.24545         2.35199
   C        0.06587         8.66042         6.65581
   C       -0.93695         9.44060         7.15579
   S       -2.48102         8.70662         7.01876
   C       -1.78668         7.30368         6.31869
   C       -0.43394         7.40485         6.16553
   S       -1.67748         4.90852         1.90520
   C       -1.59088         3.90037         0.48029
   C       -2.69404         3.81191        -0.40963
   C       -3.87559         4.43995        -0.23229
   C       -4.97698         4.35320        -1.12986
   S       -4.90854         3.36563        -2.56839
   C       -6.50269         3.83386        -3.00753
   C       -7.06391         4.69022        -2.10936
   C       -6.19692         4.98769        -1.02976
   C       -6.57462         5.93680         0.06596
   C       -8.07373         6.23164         0.05938
   C       -8.58972         6.51299        -1.36274
   C       -7.81230         7.66428        -1.94559
   O       -8.08876         8.82147        -1.79774
   C       -8.44839         5.25146        -2.21519
   C       -0.35079         3.29788         0.38351
   H       -2.21417         0.15061        -2.28982
   H       -0.91148         1.21090        -3.01413
   H       -1.64144         0.94568        -0.05505
   H        0.31576         2.74961        -1.57478
   H        1.52216         0.73218        -0.86364
   H        0.89013         0.88874         0.78011
   H        2.57905         3.00052        -0.61898
   H        3.24433         1.80834         0.49663
   H        2.19145         2.75572         2.37115
   H        2.68486         5.10952         0.48381
   H        3.94370         4.22772         1.35383
   H        2.75564         5.18488         2.23896
   H        1.44460         4.51541         3.87014
   H       -0.97960         6.39207         3.96701
   H        1.88559         5.05003         5.73688
   H        1.32969         5.78636         7.26114
   H        3.36479         8.75733         7.13622
   H        2.15300         7.80659         8.03302
   H        0.77247        10.86102         5.74923
   H        3.78548        10.37869         6.08054
   H        1.48388        19.11785         3.45883
   H       -0.59631        14.36522         3.40209
   H        0.65547        13.89442         2.25765
   H       -1.57492        14.44694         1.20388
   H        0.70936        14.64385         0.02641
   H       -2.15750        16.28615         2.78752
   H       -2.30759        16.79012         1.09734
   H       -1.12722        18.47025         2.63527
   H       -0.28001        18.03870         1.15384
   H        5.89121        11.58174         4.74108
   H        5.05410        12.43969         7.56222
   H        6.73769        10.11487         6.50266
   H        6.23107        10.40980         8.23611
   H        7.57179        13.15044         5.53325
   H        6.33670        14.25410         6.15109
   H        6.57115        13.45781         3.22338
   H        7.28959        14.92792         3.88508
   H        5.17908        15.89227         4.38906
   H        4.80067        14.31646         1.79779
   H        5.78441        15.77577         1.95480
   H        4.04007        15.85734         2.18813
   H       -0.84970        10.42648         7.56596
   H       -2.41380         6.48739         6.02155
   H       -2.54997         3.19865        -1.28806
   H       -4.01982         5.06155         0.64170
   H       -6.93579         3.44567        -3.90798
   H       -6.01598         6.87054        -0.06133
   H       -6.29103         5.52063         1.03591
   H       -8.28018         7.09053         0.69992
   H       -8.61935         5.37180         0.45489
   H       -9.64106         6.81163        -1.29539
   H       -6.92375         7.35880        -2.53240
   H       -8.68871         5.46471        -3.25957
   H       -9.16644         4.50439        -1.86199
*
