# ORCA input file
# SCF done       -143.201004232472          0.002304114079
! CAM-B3LYP def2-SVP def2/J RIJCOSX Grid4 TightSCF
%maxcore 5000
%tddft
    Mode sTDDFT
    Ethresh 5.0
    maxcore 5000
end

%pal
  nprocs 6
  end
* xyz 0 1
   C        0.46982        -0.36363        -3.97809
   C        0.11097         0.29234        -2.69121
   C        0.98034         1.04075        -1.88116
   C        0.26026         1.44131        -0.77174
   C        0.68981         2.21510         0.34622
   S        2.26784         2.95680         0.22608
   C        2.08392         3.76510         1.70341
   C        0.86836         3.49455         2.28479
   N        0.51097         4.08566         3.51319
   O        1.36772         4.70369         4.11568
   O       -0.64275         3.95679         3.91038
   C        0.05408         2.57481         1.53227
   N       -1.18212         2.20495         1.98330
   C       -1.85151         1.02146         1.82120
   C       -1.32731        -0.15235         1.42582
   C       -2.10436        -1.33192         1.20804
   S       -3.81320        -1.37991         1.56169
   C       -3.91245        -3.01600         1.03789
   C       -2.71519        -3.49867         0.60980
   C       -1.67666        -2.53772         0.70098
   C       -0.28589        -2.81762         0.21697
   C       -0.06247        -4.31261        -0.00806
   C       -1.23728        -4.91608        -0.78568
   C       -0.95063        -6.33848        -1.16928
   O       -0.98540        -6.77818        -2.28478
   C       -2.48220        -4.88827         0.10929
   O       -1.00743         0.98668        -0.87486
   C       -1.10729         0.27586        -2.02382
   C       -2.34607        -0.40108        -2.23536
   C       -2.72301        -1.01640        -3.36962
   N       -3.87913        -1.73569        -3.53000
   C       -4.89187        -1.86121        -2.60118
   C       -5.54950        -0.76286        -1.96431
   N       -5.33336         0.61350        -2.25709
   O       -4.69363         0.89556        -3.25058
   O       -5.84219         1.42324        -1.50512
   C       -6.52835        -1.14925        -1.08793
   S       -6.70764        -2.83606        -1.04628
   C       -5.39891        -3.08439        -2.17714
   C       -4.93865        -4.38819        -2.53807
   S       -3.63955        -4.56091        -3.70164
   C       -3.65905        -6.26351        -3.54808
   C       -4.58228        -6.69397        -2.64649
   C       -5.31687        -5.63043        -2.06164
   C       -6.38438        -5.88967        -1.04532
   C       -6.24239        -7.28707        -0.42860
   C       -5.12491        -7.30236         0.58355
   O       -4.28692        -8.14918         0.70900
   C       -6.07299        -8.35051        -1.51273
   C       -4.77232        -8.13160        -2.28155
   H        1.53989        -0.27611        -4.14920
   H       -0.05068         0.10955        -4.81012
   H        0.20214        -1.41971        -3.96130
   H        2.01297         1.25409        -2.07322
   H        2.84432         4.41165         2.09318
   H       -1.54728         2.83185         2.69952
   H       -2.90382         1.08973         2.06437
   H       -0.26699        -0.24225         1.24168
   H       -4.85233        -3.52795         1.09600
   H        0.44842        -2.44375         0.93445
   H       -0.12806        -2.27844        -0.72364
   H        0.02656        -4.82337         0.95321
   H        0.86853        -4.46098        -0.55837
   H       -1.42135        -4.32887        -1.69133
   H       -0.70965        -6.98917        -0.30549
   H       -2.32970        -5.56423         0.95754
   H       -3.35665        -5.24419        -0.43860
   H       -2.98890        -0.40636        -1.36614
   H       -2.10806        -0.99020        -4.25246
   H       -3.95424        -2.29871        -4.36269
   H       -7.15464        -0.50744        -0.50158
   H       -2.96093        -6.84952        -4.11023
   H       -7.36566        -5.79684        -1.52088
   H       -6.34112        -5.14183        -0.24969
   H       -7.15190        -7.49470         0.15122
   H       -5.15389        -6.42518         1.26484
   H       -6.92463        -8.29332        -2.19358
   H       -6.06276        -9.34150        -1.05754
   H       -4.75834        -8.74581        -3.18385
   H       -3.92697        -8.44688        -1.66396
*
