# ORCA input file
# SCF done       -175.165298016701          0.000635954493
! CAM-B3LYP def2-SVP def2/J RIJCOSX Grid4 TightSCF
%maxcore 5000
%tddft
    Mode sTDDFT
    Ethresh 5.0
    maxcore 5000
end

%pal
  nprocs 6
  end
* xyz 0 1
   C        4.82881         1.53723        -0.00631
   C        4.73873         1.20546        -1.28925
   C        5.47642         0.15272        -1.97341
   C        5.20359        -0.09936        -3.32048
   C        5.87442        -1.08104        -4.01681
   C        6.85238        -1.85289        -3.39007
   C        7.56189        -2.92007        -4.10848
   C        8.04817        -2.75481        -5.36125
   C        8.08992        -1.43764        -6.01962
   C        8.56004        -0.31200        -5.34578
   C        8.61287         0.91379        -5.98099
   C        8.20013         1.03609        -7.29785
   C        7.74371        -0.07915        -7.98052
   C        7.69499        -1.30808        -7.34989
   C        8.57462        -3.86849        -6.16014
   C        7.91544        -5.09780        -6.22177
   C        8.40922        -6.12075        -6.99903
   C        9.57372        -5.95946        -7.76062
   C       10.03006        -7.05913        -8.57674
   C       10.98583        -7.01152        -9.52572
   C       11.33586        -8.14819       -10.30044
   C       12.20711        -8.25955       -11.32262
   C       12.28929        -9.57459       -11.89252
   C       12.95304       -10.20002       -12.92351
   N       12.54290       -11.49862       -12.94612
   C       11.63040       -11.74231       -11.94908
   C       11.00377       -13.02354       -11.70671
   C       11.00774       -14.04647       -12.65635
   C       10.37747       -15.24512       -12.39614
   C        9.74488       -15.46903       -11.17391
   C        9.05281       -16.74150       -10.92378
   C        9.17269       -17.41839        -9.75840
   C       10.16777       -17.05462        -8.73693
   C        9.81508       -17.03921        -7.38884
   C       10.74789       -16.71246        -6.42278
   C       12.04978       -16.41015        -6.78559
   C       12.41530       -16.44227        -8.12132
   C       11.48400       -16.76252        -9.09009
   C        8.32262       -18.57244        -9.43341
   C        6.94436       -18.53497        -9.64662
   C        6.15028       -19.61489        -9.32957
   C        6.70056       -20.77860        -8.78741
   C        5.90780       -21.95293        -8.45099
   C        4.61049       -22.12783        -8.67558
   C        8.07771       -20.80210        -8.55577
   C        8.87381       -19.71978        -8.86477
   C        8.21641       -17.22559       -12.03509
   C        7.38605       -16.34101       -12.72108
   C        6.60604       -16.78330       -13.77286
   C        6.65405       -18.11056       -14.16571
   C        7.49152       -18.99307       -13.50300
   C        8.26759       -18.55606       -12.44677
   C        9.73648       -14.44218       -10.22809
   C       10.35022       -13.23726       -10.48914
   C       11.46402       -10.55221       -11.28138
   S       10.55469        -9.76065        -9.97860
   O       10.93444       -10.27189        -8.68590
   O        9.14542        -9.73447       -10.27389
   C       10.22756        -4.72358        -7.69844
   C        9.73460        -3.70064        -6.91953
   C        7.71361        -4.18346        -3.36782
   C        8.93726        -4.84944        -3.32783
   C        9.07069        -6.02781        -2.61918
   C        7.98756        -6.55857        -1.93758
   C        6.77154        -5.89601        -1.95778
   C        6.63607        -4.71373        -2.66082
   C        7.11564        -1.61836        -2.03995
   C        6.44800        -0.63119        -1.34786
   H        4.23793         2.33642         0.40738
   H        5.48749         1.03599         0.68190
   H        4.05150         1.75400        -1.92280
   H        4.44614         0.48515        -3.82416
   H        5.63382        -1.26616        -5.05339
   H        8.89398        -0.40582        -4.32279
   H        8.98057         1.77814        -5.44729
   H        8.23937         1.99590        -7.79161
   H        7.42600         0.00881        -9.00945
   H        7.33656        -2.17745        -7.88309
   H        7.00218        -5.23876        -5.66288
   H        7.88507        -7.06434        -7.04078
   H        9.52388        -8.00261        -8.42194
   H       11.51259        -6.09243        -9.75221
   H       12.79606        -7.43944       -11.70401
   H       13.66849        -9.82574       -13.62807
   H       12.88073       -12.19663       -13.58854
   H       11.48361       -13.90239       -13.61644
   H       10.37961       -16.02732       -13.14236
   H        8.79840       -17.27173        -7.10465
   H       10.45865       -16.69414        -5.38211
   H       12.77826       -16.15527        -6.03029
   H       13.43258       -16.21934        -8.40870
   H       11.77629       -16.80177       -10.12937
   H        6.49633       -17.64010       -10.05300
   H        5.08673       -19.55132        -9.50034
   H        6.46736       -22.75023        -7.97571
   H        3.99429       -21.38219        -9.14776
   H        4.11116       -23.03798        -8.39035
   H        8.52659       -21.68797        -8.12816
   H        9.93837       -19.76111        -8.68070
   H        7.34471       -15.30586       -12.41254
   H        5.95827       -16.08951       -14.28891
   H        6.04529       -18.45503       -14.98875
   H        7.54187       -20.02683       -13.81277
   H        8.92817       -19.24424       -11.94011
   H        9.22914       -14.59254        -9.28734
   H       10.33413       -12.44621        -9.75533
   H       11.13715        -4.56695        -8.25797
   H       10.25730        -2.75499        -6.87973
   H        9.78669        -4.43189        -3.84846
   H       10.02435        -6.53458        -2.59730
   H        8.09248        -7.48281        -1.38888
   H        5.92512        -6.30212        -1.42300
   H        5.68551        -4.19901        -2.67912
   H        7.86649        -2.21305        -1.53842
   H        6.68539        -0.46668        -0.30812
*
