# ORCA input file
# SCF done       -183.109197772753          0.000726154226
! CAM-B3LYP def2-SVP def2/J RIJCOSX Grid4 TightSCF
%maxcore 5000
%tddft
    Mode sTDDFT
    Ethresh 5.0
    maxcore 5000
end

%pal
  nprocs 6
  end
* xyz 0 1
   C        2.35029         0.03021         1.17252
   C        3.04487        -0.34050        -0.13998
   C        3.40768        -1.80147        -0.20661
   C        4.60011        -2.28841         0.31935
   C        5.50041        -1.38441         1.12171
   C        5.50558        -1.77367         2.60174
   C        4.95372        -3.65255         0.14302
   C        6.12662        -4.40533         0.54575
   C        7.32686        -3.91895         1.18314
   C        8.13516        -4.65004         1.97503
   C        9.31958        -4.08636         2.53927
   C        9.82797        -2.83994         2.47669
   S        9.97729        -1.07801         2.05930
   C       11.37723        -1.48394         3.06157
   C       11.05223        -2.79916         3.24318
   N       11.33370        -4.01092         3.79157
   C       10.34667        -4.79207         3.40727
   C       10.26580        -6.15916         3.77696
   C       11.19769        -6.75832         4.55700
   C       11.14005        -8.12236         4.95065
   S        9.84404        -9.16918         4.44794
   C       10.50265       -10.49160         5.29796
   C       11.66259       -10.17081         5.94500
   C       12.40732       -11.18906         6.75712
   F       11.77603       -12.37581         6.73324
   F       13.64430       -11.41757         6.29861
   F       12.51073       -10.85000         8.04829
   C       12.03530        -8.81681         5.75098
   C       13.24552        -8.13671         6.31296
   F       14.03603        -7.64520         5.33917
   F       12.91091        -7.08404         7.08431
   F       14.01486        -8.92282         7.06206
   C        6.02904        -5.72301         0.19420
   S        4.59879        -6.14292        -0.64702
   C        4.05278        -4.49933        -0.52413
   C        2.85415        -4.01954        -1.02259
   S        1.67997        -4.92911        -1.92483
   C        0.72426        -3.51670        -2.10033
   C        1.22543        -2.40694        -1.47938
   C        0.45657        -1.18530        -1.45178
   C       -0.23990        -0.71918        -2.51143
   C       -1.03314         0.45641        -2.42820
   N       -1.16577         1.16045        -1.33106
   C       -1.96510         2.20772        -1.66983
   C       -2.64140         3.33224        -1.31805
   S       -3.33215         3.65990        -2.93458
   C       -2.33669         2.15613        -3.07571
   C       -1.78166         1.05961        -3.61296
   C       -1.85645         0.52358        -4.94303
   S       -2.09084        -1.17500        -5.20937
   C       -2.16787        -0.96018        -6.89904
   C       -2.01551         0.34615        -7.26027
   C       -2.05671         0.77186        -8.69799
   F       -2.54431        -0.21221        -9.47335
   F       -2.83812         1.83600        -8.90437
   F       -0.84279         1.06112        -9.18820
   C       -1.82806         1.20374        -6.14201
   C       -1.60280         2.68277        -6.23669
   F       -0.78214         3.13403        -5.27266
   F       -1.04205         3.04998        -7.39160
   F       -2.74592         3.37890        -6.12035
   C        2.50168        -2.67396        -0.85531
   H        1.94779         1.03846         1.11098
   H        3.04616        -0.01278         2.00617
   H        1.53420        -0.65711         1.38446
   H        3.93238         0.27988        -0.27147
   H        2.38340        -0.11175        -0.97669
   H        5.16837        -0.35265         1.05170
   H        6.51330        -1.40882         0.72013
   H        4.50133        -1.69665         3.01259
   H        6.16052        -1.10726         3.15830
   H        5.85205        -2.79341         2.74536
   H        7.62161        -2.90100         0.98375
   H        7.89137        -5.67113         2.22838
   H       12.16857        -0.83250         3.37556
   H        9.42055        -6.72983         3.41616
   H       12.02972        -6.16159         4.90048
   H       10.01201       -11.44443         5.28691
   H        6.77381        -6.48004         0.34377
   H       -0.21884        -3.58914        -2.60671
   H        0.37837        -0.63824        -0.52461
   H       -0.17320        -1.21701        -3.46777
   H       -2.77752         3.90044        -0.41925
   H       -2.32300        -1.79834        -7.54870
*
