# ORCA input file
# SCF done       -193.173219345742          0.000800426706
! CAM-B3LYP def2-SVP def2/J RIJCOSX Grid4 TightSCF
%maxcore 5000
%tddft
    Mode sTDDFT
    Ethresh 5.0
    maxcore 5000
end

%pal
  nprocs 6
  end
* xyz 0 1
   C        0.11547         1.27193        -2.23301
   C        1.35025         0.95834        -1.84736
   C        2.50948         0.78314        -2.69852
   C        2.46089         0.63509        -4.10124
   N        1.26934         0.54368        -4.73753
   C        1.25995         0.45687        -6.03463
   C        2.45336         0.45571        -6.79474
   N        3.62018         0.49335        -6.22592
   C        3.66851         0.57091        -4.87407
   C        4.92828         0.62110        -4.25804
   C        6.14511         0.71638        -5.07056
   C        6.75917         1.92971        -5.27129
   C        6.44865         3.24102        -4.80066
   C        5.31496         3.64753        -4.18870
   C        5.07645         4.96228        -3.70050
   C        5.87678         6.10491        -3.73394
   C        5.15677         7.09850        -3.06873
   N        5.20022         8.39496        -2.64922
   C        4.04524         8.65823        -1.94789
   C        3.87281         9.90385        -1.20151
   C        4.09203         9.88735         0.16242
   C        4.52873         8.74710         0.88455
   C        4.79192         8.69675         2.20934
   C        5.27791         7.54913         2.91417
   C        5.43428         7.65822         4.32049
   N        5.12442         8.82890         4.92219
   C        5.26877         8.91346         6.21327
   C        5.73462         7.82507         6.98819
   N        6.04716         6.68321         6.45229
   C        5.90951         6.55931         5.10666
   C        6.23672         5.35130         4.50117
   C        6.10711         5.22156         3.12236
   N        6.44998         4.03833         2.54985
   C        6.33858         3.92952         1.25981
   C        5.87520         4.99761         0.46010
   N        5.53640         6.14290         0.97816
   C        5.63039         6.31078         2.31601
   S        3.85126        11.45226         0.89797
   C        3.45404        12.15041        -0.65220
   C        3.11874        13.47901        -0.83727
   C        3.05193        14.43504         0.31569
   C        1.62969        14.50705         0.87443
   C        2.79157        13.86263        -2.14130
   C        2.38825        15.14560        -2.61948
   C        2.12685        15.15689        -3.94180
   S        2.35145        13.62211        -4.70591
   C        2.82251        12.90497        -3.18281
   C        3.16860        11.57624        -3.00563
   C        3.18897        10.64399        -4.17944
   C        4.48066        10.80101        -4.98478
   C        3.50368        11.18919        -1.69894
   C        3.23920         7.53435        -1.91876
   C        3.93215         6.54971        -2.63829
   N        3.89578         5.25302        -3.04035
   S        8.15213         1.78859        -6.32138
   C        7.90245         0.07584        -6.50114
   C        8.70399        -0.74481        -7.27308
   C        9.88280        -0.20111        -8.02403
   C       11.15659        -0.30653        -7.18378
   C        8.38571        -2.10496        -7.26856
   C        9.03414        -3.17829        -7.95156
   C        8.47569        -4.37788        -7.69799
   S        7.12884        -4.29865        -6.61411
   C        7.30040        -2.56238        -6.48572
   C        6.48955        -1.74147        -5.71944
   C        5.43672        -2.35964        -4.84891
   C        6.00817        -2.64666        -3.45858
   C        6.78615        -0.37040        -5.74558
   C        4.98405         0.67898        -2.85993
   N        6.19606         0.66378        -2.25290
   C        6.22581         0.73868        -0.95607
   C        5.04105         0.83514        -0.18624
   N        3.86312         0.84377        -0.73574
   C        3.78237         0.76141        -2.08627
   H       -0.67465         1.38119        -1.50903
   H       -0.13971         1.42314        -3.26641
   H        1.57763         0.84844        -0.79504
   H        0.29115         0.36663        -6.50824
   H        2.43670         0.39712        -7.87456
   H        7.22148         3.97543        -4.98379
   H        4.50184         2.95174        -4.03706
   H        6.84612         6.18156        -4.18269
   H        5.96981         9.03360        -2.74615
   H        4.67233         7.85565         0.29270
   H        4.63345         9.57202         2.82673
   H        5.01642         9.86155         6.66949
   H        5.84930         7.90964         8.06090
   H        6.59144         4.52388         5.09298
   H        6.62510         2.98471         0.81748
   H        5.79183         4.90701        -0.61534
   H        3.37190        15.42793        -0.00435
   H        3.72929        14.09453         1.10195
   H        0.93422        14.83692         0.10573
   H        1.58573        15.20382         1.70781
   H        1.31532        13.52692         1.22512
   H        2.29665        16.01428        -1.99313
   H        1.80772        15.98508        -4.54441
   H        2.34173        10.87903        -4.82896
   H        3.08688         9.61386        -3.84034
   H        4.53731        11.79644        -5.41886
   H        4.51304        10.06956        -5.78815
   H        5.35070        10.65704        -4.34860
   H        2.28118         7.46467        -1.44411
   H        3.15943         4.58847        -2.87404
   H        9.69853         0.84826        -8.26531
   H       10.01326        -0.74867        -8.95885
   H       11.04422         0.25997        -6.26248
   H       12.00669         0.09032        -7.73363
   H       11.35931        -1.34418        -6.92772
   H        9.88160        -3.04775        -8.60003
   H        8.76811        -5.33732        -8.07856
   H        5.10703        -3.29848        -5.30116
   H        4.57111        -1.70670        -4.76196
   H        5.23899        -3.06237        -2.81114
   H        6.39021        -1.73243        -3.00974
   H        6.82524        -3.36097        -3.52950
   H        7.20100         0.70304        -0.48812
   H        5.07310         0.88966         0.89416
*
