# ORCA input file
# SCF done       -179.484700074835          0.000614424837
! CAM-B3LYP def2-SVP def2/J RIJCOSX Grid4 TightSCF
%maxcore 5000
%tddft
    Mode sTDDFT
    Ethresh 5.0
    maxcore 5000
end

%pal
  nprocs 6
  end
* xyz 0 1
   C        0.39223         1.64871        -0.48333
   O        1.67757         1.18410        -0.10088
   C        2.54496         2.18545         0.26297
   C        2.67226         2.66712         1.55144
   C        2.01320         2.24010         2.74821
   C        1.31493         1.09652         2.84484
   N        0.68106         0.68261         3.97765
   S        0.38056         1.62879         5.33923
   N       -1.24324         1.03305         5.29760
   C       -2.34572         1.67002         5.75525
   S       -3.58735         0.81449         6.63244
   C       -4.52170         2.26639         6.84219
   C       -5.76638         2.27868         7.60504
   C       -6.84963         1.56119         7.21526
   C       -6.88402         0.70303         5.99181
   O       -8.01009         1.54448         7.88982
   C       -8.14013         2.29345         9.01383
   C       -9.37042         2.26199         9.67089
   C       -9.54726         3.00414        10.81794
   C       -8.50920         3.78201        11.32525
   C       -7.29484         3.81263        10.67942
   C       -7.09176         3.07035         9.51299
   C       -5.79033         3.08820         8.82914
   O       -4.82365         3.69600         9.25731
   C       -3.89603         3.34541         6.28333
   O       -4.47893         4.57084         6.26235
   C       -3.81672         5.58277         7.01351
   C       -2.66799         3.00369         5.62716
   C       -1.88589         3.94393         4.77961
   F       -1.36629         3.33822         3.69035
   F       -2.61536         4.95909         4.30388
   F       -0.83477         4.50944         5.41677
   C       -1.15249        -0.40195         5.10994
   C       -0.89652        -1.15752         6.41589
   C       -0.75659        -2.64729         6.13678
   N       -0.36439        -3.37307         7.33406
   S        0.39080        -4.79223         6.79261
   N        1.24350        -3.86889         5.57453
   C        0.27821        -2.94286         4.99899
   C        1.00759        -1.67435         4.56171
   C        0.01823        -0.59962         4.10157
   S        3.86941         3.91598         1.61862
   C        4.15993         3.83944        -0.08364
   C        5.18021         4.70579        -0.64911
   C        4.98542         5.49998        -1.73492
   C        3.68502         5.68735        -2.44398
   O        5.95561         6.25633        -2.27408
   C        7.20865         6.21529        -1.76025
   C        8.20262         6.94179        -2.41668
   C        9.48642         6.93991        -1.91726
   C        9.79733         6.22475        -0.76292
   C        8.81725         5.51366        -0.10996
   C        7.50897         5.49634        -0.60086
   C        6.45343         4.74792         0.08993
   O        6.60667         4.21870         1.17707
   C        3.39965         2.84650        -0.66074
   C        3.48558         2.39878        -2.07882
   F        3.44665         1.06796        -2.20919
   F        2.46757         2.86978        -2.84407
   F        4.60990         2.79479        -2.70355
   H       -0.18110         0.76079        -0.74213
   H        0.44898         2.30907        -1.35342
   H       -0.09304         2.17917         0.34267
   H        2.11340         2.88238         3.61190
   H        1.25267         0.40779         2.01558
   H       -6.35227        -0.23071         6.17181
   H       -6.40513         1.21340         5.15981
   H       -7.91633         0.47459         5.74094
   H      -10.16243         1.65348         9.26362
   H      -10.49932         2.98061        11.32605
   H       -8.66026         4.35797        12.22516
   H       -6.46929         4.40236        11.04807
   H       -4.38159         6.49357         6.82991
   H       -2.78233         5.72328         6.69256
   H       -3.83942         5.33188         8.07716
   H       -2.09707        -0.74299         4.67349
   H       -1.72553        -0.99890         7.10597
   H        0.01095        -0.76986         6.88284
   H       -1.72836        -3.05449         5.83221
   H        0.28182        -2.82855         7.89987
   H        1.67160        -4.48512         4.89585
   H       -0.25524        -3.36931         4.13574
   H        1.69330        -1.90410         3.74501
   H        1.60610        -1.29750         5.39189
   H       -0.38518        -0.87238         3.11981
   H        2.85393         5.36528        -1.82447
   H        3.67566         5.11957        -3.37321
   H        3.56942         6.73862        -2.69991
   H        7.94300         7.49023        -3.30829
   H       10.25681         7.49858        -2.42682
   H       10.80722         6.23228        -0.38279
   H        9.02338         4.95299         0.78898
*
