# ORCA input file
# SCF done       -130.625084031146          0.000291492350
! CAM-B3LYP def2-SVP def2/J RIJCOSX Grid4 TightSCF
%maxcore 5000
%tddft
    Mode sTDDFT
    Ethresh 5.0
    maxcore 5000
end

%pal
  nprocs 6
  end
* xyz 0 1
   N        2.42718         3.29354         1.45439
   C        2.39832         2.89812         0.05444
   C        2.76663         1.40682        -0.09943
   C        4.20703         1.17821        -0.44804
   C        4.61434         0.72201        -1.67739
   C        3.85599         0.32485        -2.84066
   S        4.07459        -1.28210        -3.46114
   C        2.97206        -0.96657        -4.75615
   C        2.72372        -2.01135        -5.70096
   N        3.36301        -3.17109        -5.49822
   C        3.12780        -4.10836        -6.38717
   N        2.32130        -3.99206        -7.43303
   C        1.72941        -2.81418        -7.53976
   N        1.88630        -1.79366        -6.72205
   C        2.46908         0.31829        -4.70589
   C        2.97717         1.05143        -3.61541
   C        2.61666         2.48484        -3.39396
   C        2.10795         3.12584        -4.68198
   F        1.60298         4.36998        -4.36725
   C        1.00326         2.26641        -5.30000
   F        0.50498         2.89281        -6.42139
   C        1.54076         0.89921        -5.71726
   S        6.33673         0.49043        -1.73630
   C        6.50575         1.02079        -0.08547
   C        7.81716         1.08706         0.51040
   S        8.31217         2.48604         1.40461
   C        9.86280         1.78754         1.71604
   C       10.78742         2.52751         2.51590
   N       10.36666         3.70891         2.98990
   C       11.23412         4.36376         3.72582
   N       12.45641         3.94957         4.03058
   C       12.77627         2.77193         3.51949
   N       12.00381         2.02323         2.76107
   C        9.98631         0.53573         1.14555
   C        8.82761         0.14503         0.44985
   C        8.71312        -1.20341        -0.19095
   C       10.08048        -1.84558        -0.40690
   F        9.88024        -3.16680        -0.74819
   C       10.92442        -1.76534         0.86492
   F       12.12879        -2.40406         0.66007
   C       11.20956        -0.31149         1.22919
   C        5.28776         1.35459         0.45995
   C        5.09368         1.72776         1.89450
   C        4.87915         0.48178         2.76841
   N        6.08200        -0.33466         2.79549
   H        2.33503         4.29896         1.54273
   H        1.65874         2.86471         1.96004
   H        3.12780         3.51423        -0.47612
   H        1.41153         3.07314        -0.40350
   H        2.15078         0.95121        -0.87556
   H        2.54273         0.90637         0.84398
   H        3.63483        -5.05600        -6.25409
   H        1.05537        -2.67186        -8.37571
   H        3.47603         3.03977        -3.01371
   H        1.81817         2.56665        -2.65198
   H        2.90911         3.29358        -5.41159
   H        0.16263         2.18749        -4.59874
   H        2.07416         1.01648        -6.66575
   H        0.71848         0.20984        -5.91531
   H       10.92426         5.32404         4.11957
   H       13.76402         2.38681         3.74251
   H        8.19376        -1.14698        -1.14783
   H        8.13243        -1.86736         0.45903
   H       10.62299        -1.39184        -1.24529
   H       10.42574        -2.30734         1.67813
   H       11.96353         0.07380         0.53509
   H       11.64649        -0.24518         2.22626
   H        4.22296         2.37883         1.98131
   H        5.96934         2.25181         2.26938
   H        3.99419        -0.07199         2.41077
   H        4.68048         0.81056         3.79120
   H        6.24118        -0.74780         1.88249
   H        5.98211        -1.09017         3.46405
*
