# ORCA input file
# SCF done       -200.738529248743          0.000573060281
! CAM-B3LYP def2-SVP def2/J RIJCOSX Grid4 TightSCF
%maxcore 5000
%tddft
    Mode sTDDFT
    Ethresh 5.0
    maxcore 5000
end

%pal
  nprocs 6
  end
* xyz 0 1
   C        5.95135         0.84227        -7.75299
   C        6.64076         0.26928        -6.50870
   N        6.12025         0.69480        -5.21673
   C        4.78808         0.16341        -4.90602
   C        4.56517        -1.35656        -5.16586
   C        4.51547        -1.80326        -6.60084
   C        3.50192        -1.55841        -7.41744
   C        3.37320        -1.97056        -8.85899
   C        1.95311        -2.48062        -9.14982
   C        1.69779        -3.83853        -8.49849
   C        2.71667        -4.84590        -9.03075
   C        4.10630        -4.34602        -8.61009
   C        4.39658        -3.02196        -9.30191
   S        5.40477        -5.60246        -8.92694
   C        4.46607        -6.69152       -10.05346
   C        5.33640        -7.85465       -10.50593
   C        4.56126        -8.73398       -11.48488
   C        3.23980        -9.20075       -10.88018
   C        2.40047        -8.00527       -10.43714
   C        1.09735        -8.36439        -9.87438
   C        0.06722        -7.48332        -9.81483
   C        0.00178        -6.20923       -10.56899
   O        0.85631        -5.70060       -11.27057
   C       -1.36604        -5.69685       -10.36851
   C       -1.94087        -4.57574       -10.89301
   C       -3.29541        -4.29470       -10.60414
   C       -3.94345        -3.15698       -11.12300
   C       -5.26080        -2.91336       -10.84291
   C       -5.98672        -3.79578       -10.02943
   C       -5.38567        -4.90863        -9.50709
   C       -4.03090        -5.19033        -9.77586
   C       -3.40604        -6.33969        -9.23927
   C       -2.08998        -6.58840        -9.52656
   C       -1.19647        -7.66362        -9.11768
   C       -1.46682        -8.60739        -8.16277
   C       -0.54054        -9.55651        -7.68344
   N        0.16597       -10.33700        -7.22380
   C       -2.70220        -8.72114        -7.49216
   N       -3.68623        -8.86552        -6.91846
   C        3.22647        -7.21367        -9.33198
   N        2.44765        -6.21356        -8.66489
   C        1.97729        -6.55716        -7.34241
   C        3.00671        -6.42641        -6.21382
   C        5.55598        -2.19342        -4.35242
   C        5.34307        -1.96181        -2.86124
   C        5.47150        -0.47449        -2.55401
   C        4.48784         0.31512        -3.40781
   S        4.41423         2.06136        -2.92184
   C        6.07126         2.51268        -3.53426
   C        6.22991         4.00167        -3.25257
   C        7.55865         4.57921        -3.75900
   C        8.69831         4.03266        -2.98261
   C        9.63937         4.65833        -2.25765
   C       10.47425         3.82827        -1.32882
   O       10.61127         2.62855        -1.37496
   C       11.01747         4.77290        -0.34248
   C       11.74462         4.51176         0.78361
   C       12.13687         5.58388         1.61460
   C       12.89614         5.37559         2.78317
   C       13.26010         6.42870         3.57722
   C       12.88006         7.73623         3.23810
   C       12.14269         7.97285         2.11031
   C       11.75307         6.91179         1.26730
   C       11.00466         7.15296         0.09299
   C       10.65144         6.10088        -0.71048
   C        9.94747         6.05780        -1.98829
   C        9.81013         7.11910        -2.83738
   C        9.39597         7.03204        -4.18331
   N        9.13910         7.02442        -5.30186
   C       10.18402         8.44065        -2.50714
   N       10.45499         9.53505        -2.29388
   C        7.67324         4.22080        -5.24624
   C        7.54455         2.72299        -5.50296
   C        6.20117         2.15402        -5.01715
   H        6.40273         0.40755        -8.64158
   H        6.05085         1.92276        -7.81363
   H        4.89384         0.59422        -7.75181
   H        7.70539         0.50821        -6.53481
   H        6.57340        -0.81368        -6.54448
   H        4.01193         0.71759        -5.46918
   H        3.56219        -1.54580        -4.75854
   H        5.35008        -2.40320        -6.93345
   H        2.66758        -0.96670        -7.05575
   H        3.53101        -1.06651        -9.46420
   H        1.81986        -2.57703       -10.22945
   H        1.22033        -1.75699        -8.78640
   H        0.68904        -4.17929        -8.74124
   H        1.78297        -3.74246        -7.41463
   H        2.64435        -4.81090       -10.12643
   H        4.12969        -4.20456        -7.52943
   H        4.32736        -3.15741       -10.38396
   H        5.41006        -2.68728        -9.07769
   H        4.18888        -6.08527       -10.91883
   H        5.63973        -8.43835        -9.63398
   H        6.24171        -7.47009       -10.97903
   H        4.35787        -8.16507       -12.39507
   H        5.16915        -9.59742       -11.75941
   H        3.43190        -9.85152       -10.02364
   H        2.68476        -9.77943       -11.62155
   H        2.26077        -7.30765       -11.26695
   H        1.00345        -9.34328        -9.42418
   H       -1.37069        -3.91213       -11.52643
   H       -3.37990        -2.48162       -11.75030
   H       -5.75065        -2.04031       -11.24765
   H       -7.02537        -3.58954        -9.81868
   H       -5.93988        -5.59065        -8.87902
   H       -3.99043        -7.00280        -8.62112
   H        3.54823        -7.96003        -8.59625
   H        1.10533        -5.93932        -7.11447
   H        1.63673        -7.59679        -7.38960
   H        3.95875        -6.86121        -6.50935
   H        2.64655        -6.94865        -5.33127
   H        3.17116        -5.38470        -5.94970
   H        6.57748        -1.91746        -4.61628
   H        5.41537        -3.25131        -4.58675
   H        6.07975        -2.52347        -2.28424
   H        4.34957        -2.31408        -2.57135
   H        6.48810        -0.15824        -2.78843
   H        5.27587        -0.27951        -1.49789
   H        3.47112        -0.03840        -3.21250
   H        6.78964         1.93358        -2.95192
   H        6.12789         4.16648        -2.17740
   H        5.41471         4.53689        -3.74546
   H        7.51876         5.66671        -3.65549
   H        8.74954         2.95080        -2.92677
   H       12.01755         3.49790         1.03613
   H       13.18519         4.36667         3.03881
   H       13.84229         6.26061         4.47084
   H       13.17587         8.55580         3.87564
   H       11.85132         8.97802         1.84326
   H       10.72078         8.16760        -0.13829
   H        8.62629         4.57588        -5.64072
   H        6.88029         4.74888        -5.77993
   H        8.35394         2.18216        -5.01081
   H        7.65171         2.58322        -6.57655
   H        5.38012         2.66452        -5.55705
*
