# ORCA input file
# SCF done       -163.844875456406          0.000400036174
! CAM-B3LYP def2-SVP def2/J RIJCOSX Grid4 TightSCF
%maxcore 5000
%tddft
    Mode sTDDFT
    Ethresh 5.0
    maxcore 5000
end

%pal
  nprocs 6
  end
* xyz 0 1
   C       -0.82878        -0.64391         2.94092
   C       -0.19056         0.45649         3.44895
   C       -0.35208         1.73040         2.88757
   C       -1.15968         1.97047         1.78960
   C       -1.83572         0.84612         1.24173
   C       -1.66192        -0.45843         1.82700
   N       -2.36891        -1.39093         1.18473
   S       -3.16462        -0.69893        -0.02303
   N       -2.66179         0.81141         0.19741
   C       -1.31103         3.28065         1.22044
   C       -2.07187         3.64728         0.13087
   C       -1.97018         5.01267        -0.14853
   C       -1.12288         5.69028         0.74223
   S       -0.45558         4.65207         1.91820
   C       -1.07305         7.05864         0.36899
   C       -1.88737         7.24429        -0.75928
   C       -2.48464         5.96483        -1.11780
   C       -3.34610         5.71924        -2.14610
   C       -3.77385         6.74062        -3.02043
   N       -4.12041         7.57354        -3.72839
   C       -3.87053         4.43528        -2.40670
   N       -4.30640         3.39920        -2.63255
   C       -1.88932         8.56195        -1.21695
   C       -1.08518         9.37884        -0.44404
   S       -0.31674         8.50425         0.87391
   C       -0.82653        10.76112        -0.62409
   C       -0.04698        11.58449         0.16683
   C        0.00610        12.88695        -0.33017
   C       -0.73792        13.05339        -1.51000
   S       -1.51040        11.61201        -2.00302
   C       -0.60120        14.39577        -1.94572
   C        0.22690        15.07886        -1.03971
   C        0.63088        14.15579         0.00931
   C        1.42772        14.42364         1.08327
   C        1.97890        15.70275         1.30754
   N        2.42847        16.74138         1.49195
   C        1.75156        13.43950         2.04074
   N        2.01542        12.64027         2.81955
   C        0.44011        16.41067        -1.39580
   C       -0.21607        16.74396        -2.56615
   S       -1.11909        15.39063        -3.23399
   C       -0.20778        17.99279        -3.23707
   C       -0.83961        18.32013        -4.42245
   C       -0.59239        19.64062        -4.79782
   C        0.23225        20.32207        -3.88888
   S        0.70367        19.34180        -2.57236
   C        0.43032        21.64518        -4.36231
   C       -0.26850        21.79919        -5.56994
   C       -0.93538        20.54748        -5.88517
   C       -1.71387        20.27199        -6.97041
   C       -1.98362        21.22715        -7.97362
   N       -2.21370        21.98967        -8.79829
   C       -2.30295        19.00455        -7.16355
   N       -2.77977        17.97339        -7.32007
   C       -0.12585        23.07542        -6.12097
   C        0.67220        23.89056        -5.34691
   S        1.25743        23.06442        -3.90668
   C        1.04545        25.25486        -5.59743
   C        1.85540        25.97011        -4.73269
   C        2.23081        27.29986        -4.96691
   C        1.81560        27.98337        -6.07899
   C        0.99108        27.30640        -6.99069
   C        0.59829        25.93998        -6.76016
   N       -0.18115        25.47991        -7.73739
   S       -0.39583        26.64137        -8.82714
   N        0.48136        27.78638        -8.12723
   H       -0.71122        -1.62782         3.36369
   H        0.45826         0.35114         4.30530
   H        0.17872         2.56043         3.33193
   H       -2.66087         2.93600        -0.41844
   H       -2.43961         8.92345        -2.06707
   H        0.45181        11.23764         1.05403
   H        1.04244        17.11162        -0.84616
   H       -1.44208        17.62012        -4.97314
   H       -0.56921        23.41652        -7.03840
   H        2.21526        25.48313        -3.83743
   H        2.86587        27.78915        -4.24394
   H        2.09870        29.00520        -6.26960
*
