# ORCA input file
# SCF done       -210.979745361865          0.000702441742
! CAM-B3LYP def2-SVP def2/J RIJCOSX Grid4 TightSCF
%maxcore 5000
%tddft
    Mode sTDDFT
    Ethresh 5.0
    maxcore 5000
end

%pal
  nprocs 6
  end
* xyz 0 1
   C       10.56861        -5.10954        11.41999
   C       10.44770        -5.18329        12.77967
   F       11.42463        -5.76418        13.50113
   C        9.33689        -4.67252        13.46422
   C        8.33541        -4.07774        12.74821
   C        8.40873        -3.97310        11.34423
   C        9.54612        -4.50100        10.66666
   C        9.63909        -4.41453         9.25756
   C        8.63058        -3.81325         8.55630
   C        7.50306        -3.27236         9.23945
   C        7.38289        -3.35166        10.59633
   C        6.59359        -2.64484         8.25850
   O        5.51649        -2.13116         8.46485
   C        7.31600        -2.71531         6.96309
   C        8.43913        -3.60789         7.12322
   C        9.02778        -4.35081         6.13082
   C        8.58324        -4.33380         4.79344
   N        8.21067        -4.38152         3.70810
   C       10.06480        -5.27593         6.35494
   N       10.92459        -6.02553         6.48593
   C        6.92329        -1.91869         5.92561
   C        7.66324        -1.46908         4.81559
   C        7.14043        -0.86056         3.67875
   C        8.09909        -0.46340         2.76393
   C        9.39287        -0.73361         3.21521
   S        9.41465        -1.49165         4.75534
   C       10.47019        -0.36302         2.38421
   C       10.17480         0.24310         1.16528
  Ge        8.21337         0.36438         0.97859
   C        7.49959        -0.80115        -0.45531
   C        7.54069         2.23003         0.92274
   C       11.32144         0.55344         0.44614
   C       12.49270         0.19134         1.09190
   S       12.16599        -0.55413         2.63630
   C       13.82341         0.35464         0.63963
   C       14.98930        -0.07228         1.25503
   C       16.13882         0.23933         0.54313
   C       15.85449         0.92307        -0.63907
   S       14.16047         1.17142        -0.86630
   C       16.93572         1.30247        -1.45743
   C       18.22330         0.95435        -1.03106
  Ge       18.09256        -0.00741         0.68765
   C       18.90601         0.98301         2.19894
   C       18.65703        -1.90227         0.56816
   C       19.20121         1.37340        -1.90997
   C       18.70418         2.05330        -3.02446
   S       16.95013         2.15753        -2.94920
   C       19.36149         2.62995        -4.11550
   C       20.71095         2.63706        -4.39064
   C       21.31076         3.25537        -5.51225
   C       22.66735         3.12000        -5.57514
   C       23.21314         2.38099        -4.50657
   S       21.95243         1.87246        -3.41487
   C       24.54021         2.04750        -4.27674
   C       25.67279         2.39454        -5.03543
   C       26.84266         1.89289        -4.53525
   C       26.68610         1.12683        -3.36255
   S       25.00278         1.06017        -2.90827
   C       27.68482         0.47558        -2.65562
   C       27.44095        -0.26183        -1.50844
   C       28.32696        -0.99774        -0.74265
   C       27.94851        -1.34044         0.64227
   O       26.85812        -1.20343         1.15905
   C       29.18591        -1.84287         1.27808
   C       29.39630        -2.21919         2.57156
   C       30.68770        -2.64103         2.96311
   C       31.73680        -2.65708         2.00025
   C       33.02341        -3.07149         2.39705
   C       33.25651        -3.45539         3.68806
   C       32.21801        -3.44105         4.63831
   C       30.95928        -3.04223         4.28496
   F       32.47428        -3.82284         5.89972
   F       34.48301        -3.85083         4.06265
   C       31.48432        -2.26787         0.66313
   C       30.22452        -1.87290         0.30525
   C       29.66215        -1.45968        -0.98427
   C       30.26750        -1.68294        -2.20206
   C       29.62377        -1.58098        -3.44942
   N       29.14770        -1.56758        -4.49528
   C       31.58510        -2.15506        -2.34877
   N       32.66035        -2.51488        -2.53609
   H       11.43663        -5.51706        10.92570
   H        9.29628        -4.75936        14.53841
   H        7.46955        -3.67659        13.25326
   H       10.51255        -4.81568         8.76786
   H        6.51663        -2.94404        11.09561
   H        5.92524        -1.50027         6.01897
   H        6.08022        -0.74834         3.53154
   H        7.87550        -1.81235        -0.33419
   H        7.79911        -0.42862        -1.43019
   H        6.41513        -0.82510        -0.41097
   H        7.96608         2.81212         1.73428
   H        6.45914         2.23877         1.01606
   H        7.80955         2.69628        -0.02005
   H       11.32366         1.02456        -0.52187
   H       14.98013        -0.59835         2.19421
   H       18.56498         2.01352         2.20858
   H       19.98766         0.97290         2.10718
   H       18.63476         0.51569         3.14054
   H       18.18564        -2.38789        -0.28054
   H       18.37936        -2.43322         1.47345
   H       19.73464        -1.95985         0.45012
   H       20.24986         1.19985        -1.75212
   H       18.73181         3.13356        -4.83853
   H       20.72041         3.78241        -6.24101
   H       23.27993         3.52471        -6.36011
   H       25.60475         3.00023        -5.92118
   H       27.80948         2.04208        -4.98146
   H       28.69010         0.58159        -3.03470
   H       26.43899        -0.20521        -1.09070
   H       28.58954        -2.19618         3.28835
   H       33.82974        -3.09158         1.68058
   H       30.17398        -3.03663         5.02462
   H       32.30017        -2.28819        -0.04133
*
