# ORCA input file
# SCF done       -214.917952633609          0.000896346949
! CAM-B3LYP def2-SVP def2/J RIJCOSX Grid4 TightSCF
%maxcore 5000
%tddft
    Mode sTDDFT
    Ethresh 5.0
    maxcore 5000
end

%pal
  nprocs 6
  end
* xyz 0 1
   C        1.36001        -1.92734        -0.56453
   C        2.04604        -2.84131         0.19131
   C        2.67062        -2.54152         1.41770
   N        3.16919        -2.36317         2.43651
   C        2.24562        -4.18123        -0.19701
   N        2.45514        -5.27496        -0.47585
   C        1.34105        -0.48466        -0.33785
   C        0.93438         0.15539        -1.52270
   C        0.84775         1.52957        -1.60912
   C        1.16123         2.28221        -0.48337
   C        1.55326         1.65142         0.70193
   C        1.65179         0.26646         0.78241
  Cl        1.91860         2.59472         2.09002
  Cl        1.05959         3.99589        -0.55013
   C        0.62004        -0.86515        -2.55021
   O        0.29851        -0.68142        -3.70022
   C        0.72861        -2.16889        -1.84017
   C        0.17316        -3.27965        -2.40107
   C       -0.23196        -4.50380        -1.80426
   C       -0.44205        -5.63924        -2.62613
   C       -0.85829        -6.90292        -2.10243
   N       -1.10950        -7.92062        -2.95088
   C       -0.85850        -7.78292        -4.22001
   C       -0.34418        -6.54769        -4.73204
   N       -0.19005        -5.51908        -3.94656
   C       -0.02067        -6.37058        -6.17516
   C       -1.16152        -8.93380        -5.11798
   C       -1.05290        -7.09809        -0.71744
   C       -0.89616        -5.96418         0.09969
   C       -0.51559        -4.67760        -0.43406
   N       -0.47362        -3.74166         0.51769
   S       -0.81079        -4.42562         1.93457
   N       -1.04540        -5.92020         1.42780
   C       -1.39383        -8.37350        -0.14121
   C       -2.32060        -8.46226         0.92028
   C       -2.54279        -9.68430         1.63337
   N       -3.22501        -9.62790         2.79570
   C       -3.82219        -8.53721         3.16343
   C       -3.83984        -7.40284         2.28255
   N       -3.06638        -7.38601         1.24167
   C       -4.71397        -6.22236         2.53513
   C       -4.49896        -8.51373         4.49113
   C       -1.97494       -10.90362         1.20903
   C       -1.16142       -10.84367         0.06469
   C       -0.83752        -9.58736        -0.57990
   N        0.03502        -9.75751        -1.57711
   S        0.34075       -11.32129        -1.73460
   N       -0.57218       -11.87765        -0.54341
   C       -2.11828       -12.10373         1.99786
   C       -1.01495       -12.94366         2.27565
   C       -1.14953       -14.08809         3.11926
   N       -0.08836       -14.89803         3.31644
   C        1.05776       -14.61694         2.76487
   C        1.21501       -13.41693         1.99663
   N        0.20209       -12.62802         1.78555
   C        2.53855       -13.01345         1.44164
   C        2.18540       -15.55841         3.00470
   C       -2.36849       -14.43166         3.75618
   C       -3.44535       -13.54979         3.54179
   C       -3.32804       -12.43200         2.63179
   N       -4.48309       -11.76383         2.52264
   S       -5.55055       -12.41302         3.51711
   N       -4.64124       -13.58203         4.13088
   C       -2.37923       -15.56234         4.61844
   C       -3.44064       -16.31260         5.02454
   C       -3.41596       -17.26332         6.12414
   C       -2.31536       -17.76587         6.76485
   C       -2.37987       -18.68696         7.83274
   N       -2.36320       -19.43252         8.70527
   C       -0.96928       -17.49317         6.43493
   N        0.15245       -17.35108         6.23529
   C       -4.80360       -17.61478         6.41983
   C       -5.63354       -17.06346         5.42832
   C       -4.80619       -16.32409         4.44546
   O       -5.15915       -15.93242         3.35674
   C       -7.00157       -17.23635         5.44893
   C       -7.55963       -17.95735         6.49765
   C       -6.74214       -18.50105         7.49400
   C       -5.36158       -18.34009         7.46015
  Cl       -7.44621       -19.38339         8.78930
  Cl       -9.26169       -18.17429         6.57178
   H        0.54214         2.00668        -2.52683
   H        1.95246        -0.19011         1.71138
   H       -0.05913        -3.19977        -3.45859
   H       -0.90644        -6.53376        -6.78741
   H        0.73607        -7.09097        -6.48162
   H        0.35022        -5.36333        -6.34077
   H       -1.86750        -8.64054        -5.89338
   H       -1.58405        -9.74378        -4.53119
   H       -0.25055        -9.27876        -5.60460
   H       -4.43776        -5.74274         3.47307
   H       -5.75588        -6.52984         2.60767
   H       -4.60286        -5.51020         1.72268
   H       -4.13006        -7.68309         5.09039
   H       -4.30908        -9.44811         5.01095
   H       -5.57310        -8.38714         4.36341
   H        2.89843       -13.76747         0.74329
   H        2.43963       -12.06240         0.92679
   H        3.27297       -12.91620         2.23966
   H        3.02869       -15.03786         3.45518
   H        2.52179       -15.98911         2.06248
   H        1.85369       -16.35188         3.66852
   H       -1.39430       -15.81852         4.98903
   H       -7.62159       -16.81292         4.67485
   H       -4.76293       -18.77395         8.24423
*
