# ORCA input file
# SCF done       -175.182257508434          0.000752769942
! CAM-B3LYP def2-SVP def2/J RIJCOSX Grid4 TightSCF
%maxcore 5000
%tddft
    Mode sTDDFT
    Ethresh 5.0
    maxcore 5000
end

%pal
  nprocs 6
  end
* xyz 0 1
   C        0.57175        13.77061        -6.19129
   C       -0.28762        14.15845        -5.20772
   C       -0.54216        13.10581        -4.30848
   C        0.14624        11.93567        -4.64777
   S        1.09407        12.12623        -6.05373
   C       -0.17057        10.92771        -3.69008
   C       -1.05691        11.47302        -2.75089
   C       -1.32218        12.86029        -3.10829
   C       -2.13641        13.73506        -2.45073
   C       -2.84315        13.36845        -1.28597
   N       -3.41759        13.07148        -0.33901
   C       -2.32687        15.06251        -2.88946
   N       -2.48651        16.14205        -3.24119
   C       -1.43328        10.55665        -1.76731
   C       -0.83898         9.32650        -1.96108
   S        0.20057         9.29520        -3.37043
   C       -1.02114         8.15410        -1.15073
   C       -0.44290         6.94990        -1.40541
   C       -0.70619         5.83783        -0.54874
   C       -0.12007         4.59371        -0.75607
   C       -0.39128         3.49169         0.06175
   N       -0.60419         2.56375         0.70871
   C        0.78121         4.36054        -1.80110
   N        1.51829         4.15073        -2.65915
   C       -1.59709         6.07650         0.52984
   C       -2.14176         7.31798         0.73865
   O       -1.84368         8.35917        -0.09574
   C       -3.01016         7.71185         1.78975
   C       -3.61301         6.92751         2.73798
   C       -4.43640         7.41158         3.79414
   C       -4.93581         6.44544         4.61139
   C       -4.55121         5.13642         4.24432
   S       -3.51849         5.18412         2.82828
   C       -4.86003         3.92185         4.81820
   C       -5.59737         3.63309         5.99297
   C       -5.67526         2.30610         6.27505
   C       -5.01633         1.46153         5.33633
   S       -4.29806         2.44568         4.07365
   C       -4.90183         0.10105         5.41341
   C       -4.25827        -0.74016         4.47457
   C       -3.85155        -0.46664         3.19076
   C       -3.21670        -1.55341         2.56036
   C       -2.64324        -1.61715         1.27826
   C       -2.03208        -2.83129         0.93375
   C       -2.01491        -3.87772         1.89445
   N       -2.54367        -3.82430         3.09613
   C       -3.12452        -2.68745         3.41286
   S       -3.87256        -2.39794         4.94308
   S       -1.21114        -5.31168         1.31750
   C       -0.93682        -4.52962        -0.21301
   C       -1.41212        -3.26178        -0.27814
   F       -1.32890        -2.51079        -1.38955
   F       -0.31661        -5.18450        -1.18735
   C       -2.74963        -0.47990         0.38362
   C       -1.79557         0.11122        -0.35141
   C       -2.19437         1.07956        -1.43486
   O       -3.26966         1.61697        -1.55369
   C       -1.01123         1.14881        -2.27336
   C        0.06081         0.46631        -1.70060
   C       -0.35132        -0.08863        -0.43094
   C        0.48243        -0.55833         0.54232
   C        0.08192        -0.90035         1.84860
   N       -0.18179        -1.16949         2.93281
   C        1.87424        -0.67403         0.33495
   N        3.00290        -0.80171         0.17728
   C        1.22884         0.54173        -2.48108
   C        1.00950         1.25861        -3.62017
   S       -0.59425         1.86612        -3.76776
   H        0.94088        14.35848        -7.00774
   H       -0.71113        15.14362        -5.13847
   H       -2.10388        10.75517        -0.95170
   H        0.21221         6.82992        -2.25384
   H       -1.81569         5.26375         1.19938
   H       -3.21962         8.77248         1.82677
   H       -4.62390         8.46401         3.91174
   H       -5.57278         6.63436         5.45685
   H       -6.02963         4.41094         6.59651
   H       -6.18288         1.89407         7.12923
   H       -5.30880        -0.38084         6.29203
   H       -4.01320         0.47101         2.69428
   H       -3.74737        -0.06419         0.27620
   H        2.17194         0.09417        -2.22793
   H        1.71903         1.48517        -4.39128
*
