# ORCA input file
# SCF done       -176.942945489061          0.000668912185
! CAM-B3LYP def2-SVP def2/J RIJCOSX Grid4 TightSCF
%maxcore 5000
%tddft
    Mode sTDDFT
    Ethresh 5.0
    maxcore 5000
end

%pal
  nprocs 6
  end
* xyz 0 1
   C        0.40050         1.37732         8.71473
   C        1.11386         0.95205         7.63751
   C        1.33598         1.99832         6.72076
   C        0.76834         3.21300         7.14530
   S       -0.02434         3.05977         8.65044
   C        1.03769         4.21005         6.17241
   C        1.77388         3.61425         5.13431
   C        1.98125         2.20271         5.44599
   C        2.64773         1.29682         4.67003
   C        3.21232         1.63500         3.41990
   N        3.65871         1.89050         2.39485
   C        2.82678        -0.05004         5.03538
   N        3.00555        -1.15405         5.29501
   C        2.11479         4.49143         4.11966
   C        1.65133         5.78499         4.35471
   S        0.75983         5.87297         5.87792
   C        1.80643         6.94375         3.57544
   C        2.56445         7.06203         2.43392
   C        2.70363         8.22046         1.62471
   C        3.52467         8.06616         0.54694
   C        4.09124         6.77650         0.44628
   S        3.54072         5.77216         1.76377
   C        4.94622         6.21694        -0.48276
   C        5.50810         6.75712        -1.66444
   C        6.27936         5.87544        -2.35305
   C        6.38446         4.58687        -1.74687
   S        5.45952         4.56303        -0.25943
   C        6.99665         3.48943        -2.27685
   C        7.07703         2.19212        -1.65864
   C        6.95130         1.03306        -2.44294
   F        6.78143         1.17581        -3.76747
   C        6.95007        -0.23689        -1.89574
   F        6.75858        -1.28591        -2.69786
   C        7.09007        -0.42882        -0.51621
   C        7.28749         0.71165         0.26631
   C        7.28981         1.97948        -0.28686
   F        7.59292         3.01735         0.50699
   F        7.55791         0.58243         1.57055
   C        7.06189        -1.76475         0.07534
   N        7.72417        -2.73065        -0.52547
   N        7.73973        -3.95633        -0.10686
   C        7.16464        -4.33767         1.01572
   C        6.48173        -3.37340         1.80245
   C        6.36392        -2.04660         1.27829
   N        5.61304        -1.27064         2.05803
   S        5.15676        -2.11697         3.33878
   N        5.86825        -3.50865         2.97628
   C        7.23145        -5.72226         1.43638
   C        6.13758        -6.42283         1.80331
   C        6.07278        -7.75676         2.38781
   C        7.13427        -8.54768         2.73101
   C        7.01360        -9.82280         3.32529
   N        6.97880       -10.86331         3.80802
   C        8.49362        -8.20678         2.55691
   N        9.61916        -8.00464         2.46119
   C        4.66688        -8.07710         2.59533
   C        3.87182        -6.99339         2.14521
   C        4.74034        -5.93738         1.59957
   O        4.38756        -4.92483         1.03900
   C        2.49963        -6.99734         2.22036
   C        1.87925        -8.12290         2.77042
   C        2.67992        -9.20416         3.21343
   C        4.06628        -9.20169         3.13427
   S        1.71034       -10.49554         3.85402
   C        0.26399        -9.57847         3.52523
   C        0.49243        -8.36715         2.96386
  Br       -1.40942       -10.30421         3.95672
   H        0.08698         0.80505         9.56465
   H        1.46187        -0.05697         7.51017
   H        2.65714         4.19810         3.24344
   H        1.28809         7.83117         3.91392
   H        2.18644         9.13272         1.86556
   H        3.73917         8.84000        -0.16835
   H        5.31787         7.77032        -1.97134
   H        6.78233         6.09593        -3.27778
   H        7.37114         3.56001        -3.28896
   H        8.21708        -6.16671         1.44359
   H        1.92436        -6.15599         1.86722
   H        4.62976       -10.05082         3.48305
   H       -0.28344        -7.67315         2.69662
*
