# ORCA input file
# SCF done       -183.120403537116          0.000885994825
! CAM-B3LYP def2-SVP def2/J RIJCOSX Grid4 TightSCF
%maxcore 5000
%tddft
    Mode sTDDFT
    Ethresh 5.0
    maxcore 5000
end

%pal
  nprocs 6
  end
* xyz 0 1
   C        3.92366        11.92331         6.38054
   C        4.19942        12.33027         5.11174
   C        3.25984        11.82157         4.19329
   C        2.28350        11.03013         4.81233
   S        2.51833        10.91278         6.49901
   C        1.38095        10.56225         3.81812
   C        1.79161        11.05894         2.57479
   C        2.98868        11.87086         2.77127
   C        3.69345        12.53795         1.81081
   C        3.32116        12.51142         0.45126
   N        3.02245        12.49326        -0.65609
   C        4.83860        13.30244         2.11461
   N        5.77246        13.92325         2.35499
   C        0.96351        10.65840         1.52597
   C       -0.08133         9.86375         1.96160
   S       -0.02772         9.60320         3.70280
   C       -1.12617         9.28458         1.18351
   C       -2.16551         8.58761         1.74669
   C       -3.22937         8.02428         1.04276
   C       -3.36319         8.23392        -0.40694
   C       -2.44222         8.86282        -1.16789
   S       -0.98648         9.53365        -0.55479
   C       -4.61867         7.66501        -0.75550
   C       -5.22915         7.14398         0.38593
   C       -6.48412         6.56238         0.10068
   C       -6.78905         6.65830        -1.21969
   S       -5.57362         7.44831        -2.16814
   C       -4.35866         7.33475         1.51584
   C       -4.65844         6.89234         2.83064
   C       -3.75167         6.61141         3.80029
   C       -4.08163         6.23797         5.12870
   C       -5.29376         6.27469         5.78564
   C       -5.21002         5.85982         7.11529
  Cl       -6.57266         5.83534         8.15797
   C       -3.93638         5.47978         7.52076
   S       -2.82638         5.66304         6.19114
   C       -3.52240         5.01227         8.79107
   C       -2.28136         4.53195         9.18307
  Cl       -0.94051         4.41757         8.11752
   C       -2.20421         4.14284        10.52249
   C       -3.38460         4.33288        11.20471
   S       -4.61204         4.98332        10.14826
   C       -3.67541         4.07340        12.57520
   C       -4.84835         4.47910        13.16122
   C       -5.19506         4.26599        14.49322
   C       -4.30486         3.53308        15.39783
   C       -3.09730         3.04595        15.03956
   S       -2.42788         3.20785        13.46587
   C       -4.98985         3.49890        16.64335
   C       -6.21061         4.17079        16.54072
   C       -6.91432         4.15569        17.76649
   C       -6.22868         3.49443        18.73556
   S       -4.70597         2.86233        18.21356
   C       -6.35073         4.66726        15.19284
   C       -7.38283         5.44155        14.62096
   C       -8.50186         5.90724        15.23753
   C       -9.46327         6.72457        14.59528
   C       -9.46984         7.21097        13.29452
   C      -10.57866         8.00961        13.03546
   C      -11.43742         8.14165        14.13579
   S      -10.87018         7.27501        15.49704
   C      -12.52216         8.97730        13.75782
   C      -12.34582         9.36922        12.42214
   C      -11.12500         8.78100        11.92098
   C      -10.57700         8.91349        10.67633
   C      -11.18344         9.68103         9.66188
   N      -11.66834        10.30184         8.82783
   C       -9.35856         8.29773        10.32801
   N       -8.36353         7.80459        10.03920
   C      -13.38065        10.21157        11.96766
   C      -14.30165        10.43813        12.94167
   S      -13.94153         9.63618        14.44069
   H        4.46314        12.15340         7.27728
   H        5.03114        12.96012         4.85412
   H        1.09992        10.93003         0.49474
   H       -2.16920         8.51363         2.82553
   H       -2.55616         8.98893        -2.23303
   H       -7.12805         6.09896         0.82590
   H       -7.67161         6.30688        -1.71760
   H       -5.70780         6.73094         3.03968
   H       -2.69616         6.62187         3.57000
   H       -6.21146         6.60653         5.33813
   H       -1.31024         3.74868        10.97008
   H       -5.53972         5.00891        12.51929
   H       -2.45486         2.51843        15.72673
   H       -7.87626         4.59992        17.94361
   H       -6.52624         3.33134        19.75302
   H       -7.23984         5.69879        13.58089
   H       -8.69167         5.67192        16.27305
   H       -8.69906         6.99298        12.57935
   H      -13.44209        10.62754        10.97852
   H      -15.18951        11.03512        12.88457
*
