# ORCA input file
# SCF done       -225.619248986496          0.000762912642
! CAM-B3LYP def2-SVP def2/J RIJCOSX Grid4 TightSCF
%maxcore 5000
%tddft
    Mode sTDDFT
    Ethresh 5.0
    maxcore 5000
end

%pal
  nprocs 6
  end
* xyz 0 1
   C        8.37024        -0.53065        -1.94131
   C        8.39945         0.80909        -2.32743
   C        9.37896         1.14451        -3.42515
   O        9.72604         0.29884        -4.20059
   O        9.85381         2.38640        -3.49958
   C        7.50570         1.72778        -1.74916
   C        7.49404         3.09993        -2.09731
   N        7.46776         4.22163        -2.33615
   C        6.55989         1.30575        -0.80561
   C        6.54437        -0.02188        -0.44171
   C        7.45820        -0.94450        -0.98700
   C        7.22180        -2.25499        -0.38694
   C        8.13182        -3.27190        -0.32726
   C        9.38716        -3.24872        -0.97412
   N       10.41155        -3.29128        -1.48702
   C        7.93908        -4.44298         0.43520
   N        7.81831        -5.40768         1.04410
   C        5.96906        -2.17103         0.33790
   C        5.62390        -0.72411         0.48501
   O        4.75208        -0.24833         1.16559
   C        5.09744        -3.11154         0.77597
   C        5.02222        -4.49771         0.43170
   C        4.42529        -5.41086         1.32942
   C        4.33668        -6.81674         1.04003
   N        3.73497        -7.64887         1.91129
   C        3.30403        -7.17209         3.04563
   C        3.43315        -5.77144         3.35654
   N        3.95953        -4.93854         2.50022
   C        2.94008        -5.27979         4.59340
   N        2.53098        -4.92310         5.60112
   C        2.65908        -8.04348         3.96215
   N        2.12580        -8.71928         4.71632
   C        4.82238        -7.35051        -0.16602
   C        5.35925        -6.44594        -1.08578
   C        5.46212        -5.03301        -0.79295
   N        6.01005        -4.36360        -1.81353
   S        6.37708        -5.39916        -2.98105
   N        5.87089        -6.73744        -2.28856
   C        4.75834        -8.77607        -0.45579
   C        5.22009        -9.74328         0.41375
   F        5.78560        -9.39306         1.57072
   C        5.17929       -11.11988         0.10498
   F        5.63343       -11.97128         1.03006
   C        4.64228       -11.60196        -1.07065
   C        4.13111       -10.63937        -1.97257
   C        4.20379        -9.23463        -1.67393
   N        3.67083        -8.49300        -2.64336
   S        3.16832        -9.46397        -3.81762
   N        3.57723       -10.86718        -3.16126
   C        4.60980       -13.01625        -1.41217
   C        5.76359       -13.81639        -1.35439
   C        5.73728       -15.20055        -1.74364
   N        6.84530       -15.95166        -1.60983
   C        7.94672       -15.39091        -1.19118
   C        8.00296       -13.97367        -0.93264
   N        6.92797       -13.24034        -0.99990
   C        9.24116       -13.36509        -0.59854
   N       10.25721       -12.90657        -0.33958
   C        9.10522       -16.18748        -0.99776
   N       10.06070       -16.79587        -0.83379
   C        4.58838       -15.79614        -2.31059
   C        3.43168       -14.99537        -2.34614
   C        3.44305       -13.62574        -1.88193
   N        2.22914       -13.06731        -1.96136
   S        1.20452       -14.12713        -2.55732
   N        2.21025       -15.36165        -2.75072
   C        4.64309       -17.15314        -2.75677
   C        3.88771       -17.76055        -3.70339
   C        3.82086       -19.25389        -3.75697
   O        4.55337       -20.03319        -3.20571
   C        2.62707       -19.54894        -4.58681
   C        2.10843       -18.34634        -5.10291
   C        0.94980       -18.36042        -5.86296
   C        0.32806       -19.57838        -6.12449
   C        0.86532       -20.77598        -5.62209
   C        2.02671       -20.76301        -4.84307
   C        0.26727       -22.03032        -5.90915
   N       -0.12318       -23.08596        -6.11768
   C       -0.97127       -19.63821        -6.88007
   O       -1.81432       -20.44857        -6.62706
   O       -1.14206       -18.72227        -7.83950
   C        2.97816       -17.24317        -4.70442
   C        3.06483       -16.03838        -5.34699
   C        4.06136       -15.07616        -5.08404
   N        4.86086       -14.27118        -4.91297
   C        2.19651       -15.66058        -6.39138
   N        1.49083       -15.33028        -7.23394
   H        9.05549        -1.21205        -2.42127
   H        9.48515         3.01795        -2.86461
   H        5.85761         2.00616        -0.37923
   H        4.31849        -2.75976         1.44545
   H        5.36214       -17.78231        -2.24152
   H        0.50738       -17.43678        -6.20559
   H        2.43930       -21.67955        -4.44953
   H       -0.38299       -18.13912        -7.97884
*
