# ORCA input file
# SCF done       -168.400101314691          0.000782414433
! CAM-B3LYP def2-SVP def2/J RIJCOSX Grid4 TightSCF
%maxcore 5000
%tddft
    Mode sTDDFT
    Ethresh 5.0
    maxcore 5000
end

%pal
  nprocs 6
  end
* xyz 0 1
   C       -4.26655        -1.03492         2.14128
   C       -4.08093        -2.02945         1.21250
   C       -3.73565        -3.35852         1.53244
   N       -3.43916        -4.45062         1.72719
   C       -4.20095        -1.86936        -0.18254
   N       -4.28128        -1.81535        -1.32734
   C       -4.17369        -1.19415         3.58667
   C       -4.43741         0.05336         4.20523
   C       -4.42534         0.22349         5.56787
   C       -4.14862        -0.89402         6.36249
   C       -3.88583        -2.13670         5.73701
   C       -3.89200        -2.30720         4.35833
   S       -3.56164        -3.38268         6.90337
   C       -3.78191        -2.23455         8.19737
   C       -4.08285        -0.98185         7.77971
  Br       -3.58980        -2.79740         9.97516
   C       -4.69431         1.07128         3.17184
   O       -4.78387         2.26585         3.33884
   C       -4.64226         0.33855         1.87204
   C       -4.78828         0.92952         0.65365
   C       -5.39175         2.19813         0.45632
   O       -5.07695         2.91764        -0.65777
   C       -6.37628         2.88012         1.14562
   C       -7.31852         2.79282         2.26960
   O       -7.52556         1.92109         3.07037
   N       -8.03563         3.98540         2.18195
   C       -7.70938         4.80317         1.10315
   O       -8.24790         5.84789         0.84008
   C       -6.63695         4.06875         0.42569
   C       -5.80505         4.06255        -0.68083
   C       -5.64121         5.01306        -1.72535
   C       -4.83844         4.81465        -2.79471
   C       -4.69465         5.77824        -3.84071
   C       -3.99921         5.59439        -4.97678
   C       -3.25860         4.33181        -5.29491
   C       -3.93529         6.64821        -6.06029
   N       -4.66520         7.85397        -5.77686
   C       -4.09659         8.92724        -5.17233
   C       -4.76934         9.78147        -4.36128
   C       -4.22901        10.95640        -3.80169
   C       -4.82522        11.63008        -2.76881
   C       -4.42355        12.83896        -2.15031
   C       -5.19389        13.21055        -1.08979
   C       -6.23076        12.29861        -0.78758
   S       -6.24496        10.98976        -1.94188
   C       -7.11132        12.30105         0.27684
   C       -7.29456        13.27078         1.28574
   C       -8.21781        12.91966         2.22327
   C       -8.80002        11.64083         2.02038
   S       -8.16451        10.92423         0.55547
   C       -9.69916        11.01574         2.84390
   C      -10.20072         9.70912         2.69887
   S       -9.75246         8.59639         1.43406
   C      -10.74817         7.36185         2.07676
   C      -11.39822         7.76277         3.21062
   C      -11.09916         9.08895         3.56981
   O      -11.59720         9.76517         4.64223
   C      -12.46394         9.27333         5.53303
   O      -12.83890         9.97612         6.43356
   C      -12.99518         7.84598         5.45341
   O      -13.76367         7.43551         6.27782
   S      -12.49339         6.75182         4.14769
   H       -4.63146         1.18714         6.00587
   H       -3.68182        -3.27352         3.93140
   H       -4.25165        -0.15258         8.44209
   H       -4.44567         0.43597        -0.24572
   H       -8.76217         4.22244         2.84279
   H       -6.21955         5.91914        -1.61416
   H       -4.29506         3.88439        -2.87184
   H       -5.20458         6.71604        -3.66622
   H       -3.93886         3.48205        -5.32390
   H       -2.50566         4.12771        -4.53533
   H       -2.76222         4.40601        -6.25888
   H       -4.32869         6.20797        -6.98626
   H       -2.88785         6.91173        -6.24119
   H       -5.64717         7.71370        -5.57767
   H       -3.05028         9.08277        -5.39851
   H       -5.78966         9.54160        -4.08784
   H       -3.29067        11.33390        -4.18445
   H       -3.57659        13.39603        -2.51112
   H       -5.03109        14.09595        -0.50170
   H       -6.74735        14.19661         1.29077
   H       -8.49069        13.52676         3.06807
   H      -10.04916        11.55527         3.71350
   H      -10.79141         6.40905         1.59308
*
