# ORCA input file
# SCF done       -195.943268159092          0.000476158495
! CAM-B3LYP def2-SVP def2/J RIJCOSX Grid4 TightSCF
%maxcore 5000
%tddft
    Mode sTDDFT
    Ethresh 5.0
    maxcore 5000
end

%pal
  nprocs 6
  end
* xyz 0 1
   C       -3.86064        12.44055         9.85588
   C       -4.87124        12.94286        10.63180
   C       -4.69006        13.93717        11.61686
   N       -4.60501        14.74559        12.42713
   C       -6.21800        12.52123        10.59364
   N       -7.32646        12.22481        10.64143
   C       -2.45396        12.79831         9.96070
   C       -1.70522        11.94288         9.11683
   C       -0.33878        12.02802         8.99961
   C        0.32084        13.00522         9.75169
   C       -0.43669        13.86026        10.58874
   C       -1.81765        13.77396        10.70702
   S        0.57579        14.99978        11.42221
   C        1.98333        14.32013        10.64942
   C        1.71166        13.29355         9.80868
  Br        3.67742        15.03089        11.02413
   C       -2.61086        11.00470         8.42344
   O       -2.27799        10.15289         7.63090
   C       -3.98397        11.39035         8.85244
   C       -5.15839        11.01734         8.27838
   C       -5.43889         9.95555         7.35080
   C       -4.71138         8.74641         7.32938
   C       -5.02267         7.71565         6.47537
   C       -6.09319         7.89713         5.60279
   C       -6.83212         9.10756         5.63198
   C       -6.54253        10.12880         6.50028
   O       -7.81611         9.00584         4.70507
   C       -7.64712         7.76308         4.16474
   N       -6.64663         7.08289         4.66377
   C       -8.54268         7.32720         3.16585
   S       -9.80167         8.36661         2.60856
   C      -10.42624         7.16402         1.51656
   C       -9.65339         5.98071         1.59352
   C       -8.58202         6.07769         2.52693
   C       -7.70638         4.99785         2.73228
   C       -7.90981         3.85429         2.01199
   F       -7.09735         2.80138         2.17676
   C       -8.97017         3.75236         1.08420
   F       -9.12854         2.60829         0.40071
   C       -9.83413         4.79184         0.86994
   C      -11.54446         7.40359         0.71437
   C      -12.20760         8.60729         0.65454
   C      -13.33438         8.84315        -0.12550
   C      -13.96644        10.06938        -0.21654
   C      -15.12151        10.38120        -0.96329
   C      -15.50691        11.68936        -0.87606
   C      -14.66577        12.47423        -0.06252
   S      -13.38352        11.50175         0.60784
   C      -14.75517        13.83610         0.19615
   C      -15.73220        14.74203        -0.26420
   C      -15.52108        16.03093         0.13434
   C      -14.36318        16.20278         0.92481
   S      -13.56568        14.66849         1.16400
   C      -13.80373        17.36429         1.42427
   C      -14.37416        18.62971         1.32317
   C      -13.76775        19.82305         1.65467
   C      -14.58934        21.01576         1.96249
   O      -15.78018        21.14689         1.77360
   C      -13.65893        21.97797         2.58788
   C      -13.92241        23.19785         3.13858
   C      -12.86249        23.94308         3.70456
   C      -11.54458        23.40177         3.69113
   C      -10.49343        24.14728         4.25818
   C      -10.75824        25.37208         4.80531
   C      -12.04658        25.92183         4.82850
   C      -13.07910        25.20989         4.28324
   F       -9.75372        26.08736         5.34549
   C      -11.30032        22.13507         3.10867
   C      -12.34073        21.43712         2.56091
   C      -12.38580        20.14863         1.86912
   C      -11.29551        19.50033         1.33380
   C      -11.38270        18.44459         0.40501
   N      -11.39898        17.62256        -0.39740
   C       -9.96175        19.89211         1.55637
   N       -8.85448        20.14823         1.72378
   H        0.20336        11.36046         8.34839
   H       -2.35046        14.45213        11.35228
   H        2.45993        12.76123         9.25044
   H       -6.02637        11.62190         8.51750
   H       -3.90106         8.61884         8.02632
   H       -4.46815         6.79226         6.47639
   H       -7.12599        11.03572         6.51590
   H       -6.90052         5.08682         3.44182
   H      -10.63127         4.68038         0.15368
   H      -11.89692         6.58435         0.10305
   H      -11.82899         9.43040         1.24869
   H      -13.75096         8.02768        -0.70222
   H      -15.63503         9.63510        -1.54353
   H      -16.36108        12.10233        -1.38114
   H      -16.55865        14.42862        -0.87629
   H      -16.15733        16.85504        -0.13208
   H      -12.85862        17.26381         1.93982
   H      -15.41781        18.71059         1.04290
   H      -14.92725        23.59306         3.14223
   H       -9.48800        23.75602         4.25545
   H      -12.19572        26.89236         5.27451
   H      -14.08079        25.61278         4.28921
   H      -10.29404        21.74713         3.11847
*
