# ORCA input file
# SCF done       -181.394036192242          0.000257208048
! CAM-B3LYP def2-SVP def2/J RIJCOSX Grid4 TightSCF
%maxcore 5000
%tddft
    Mode sTDDFT
    Ethresh 5.0
    maxcore 5000
end

%pal
  nprocs 6
  end
* xyz 0 1
   C       14.74957       -12.78700        -8.31787
   C       13.48368       -13.19021        -8.14649
   C       12.97895       -14.53421        -8.19023
   C       11.64798       -14.63373        -7.98832
   C       10.99304       -13.38539        -7.77192
   S       12.14494       -12.07403        -7.82496
   C        9.65078       -13.17582        -7.55650
   C        8.61784       -14.14618        -7.51377
   C        7.38727       -13.61622        -7.30253
   C        7.37328       -12.19707        -7.17639
   S        8.99075       -11.56592        -7.32580
   C        6.23834       -11.46751        -6.92257
   C        6.08048       -10.07492        -6.82579
   O        4.88463        -9.64574        -6.31749
   C        6.83928        -8.94809        -7.13884
   C        8.06464        -8.46515        -7.77191
   O        8.96535        -9.03979        -8.33257
   N        7.98029        -7.07797        -7.65657
   C        6.80481        -6.59647        -7.08867
   O        6.53718        -5.43597        -6.92801
   C        6.05932        -7.82108        -6.77496
   C        4.85636        -8.28315        -6.28101
   C        3.70212        -7.58765        -5.84171
   C        2.58253        -8.22110        -5.41265
   C        1.39274        -7.54148        -5.04774
   O        0.31037        -8.26543        -4.64092
   C        1.03482        -6.20675        -5.05617
   C        1.50735        -4.85037        -5.33079
   O        2.57707        -4.43749        -5.69404
   N        0.38826        -4.05337        -5.07286
   C       -0.74748        -4.74059        -4.66957
   O       -1.81634        -4.23523        -4.42163
   C       -0.32351        -6.13923        -4.64933
   C       -0.73506        -7.43262        -4.39873
   C       -1.98994        -7.97545        -3.98869
   C       -3.09284        -7.22014        -3.84489
   C       -4.37546        -7.76109        -3.39999
   C       -4.40617        -8.44732        -2.19492
   C       -5.59216        -8.93169        -1.62455
   C       -6.80469        -8.75530        -2.29103
   C       -6.79150        -8.11033        -3.51076
   C       -5.59309        -7.60677        -4.08704
   N       -5.87320        -7.07175        -5.31670
   C       -7.23162        -7.20082        -5.55455
   C       -7.84069        -7.83163        -4.44636
   C       -9.20546        -8.08365        -4.41911
   C       -9.96395        -7.70004        -5.50533
   C       -9.36747        -7.07776        -6.59881
   C       -8.01016        -6.82139        -6.64215
   C       -4.89247        -6.59502        -6.27045
   C       -4.84839        -7.50342        -7.50938
   C       -4.45575        -8.92986        -7.14114
   C       -5.10752        -5.11677        -6.62570
   C       -5.08518        -4.21735        -5.39518
   C       -5.56830        -9.59296        -0.34720
   O       -4.39589        -9.73461         0.32377
   C       -6.57331       -10.15317         0.41279
   C       -8.00552       -10.43375         0.48466
   O       -8.90725       -10.19809        -0.28157
   N       -8.15860       -11.08252         1.70855
   C       -6.98829       -11.25740         2.44424
   O       -6.92088       -11.79380         3.51981
   C       -5.95938       -10.65134         1.59714
   C       -4.61821       -10.37256         1.50512
   C       -3.54327       -10.64298         2.41773
   C       -2.27652       -10.29530         2.20166
   H       15.53256       -13.49842        -8.51347
   H       15.02271       -11.74896        -8.26855
   H       13.63911       -15.36313        -8.37444
   H       11.10117       -15.55973        -7.98875
   H        8.81166       -15.19574        -7.64314
   H        6.47848       -14.18849        -7.24069
   H        5.33125       -12.02836        -6.73779
   H        8.70063        -6.46761        -8.01477
   H        3.75417        -6.50883        -5.88844
   H        2.55266        -9.30000        -5.35649
   H        0.40751        -3.04887        -5.17674
   H       -2.02163        -9.04615        -3.84344
   H       -3.02777        -6.14958        -3.99252
   H       -3.48242        -8.57694        -1.65225
   H       -7.72661        -9.12089        -1.86947
   H       -9.65124        -8.56736        -3.56397
   H      -11.02804        -7.88083        -5.51345
   H       -9.98067        -6.78626        -7.43891
   H       -7.59425        -6.33736        -7.51072
   H       -3.91973        -6.68112        -5.77807
   H       -4.11598        -7.09162        -8.20612
   H       -5.81643        -7.51507        -8.00889
   H       -3.48179        -8.94602        -6.65566
   H       -4.40639        -9.54999        -8.03264
   H       -5.18496        -9.36743        -6.46265
   H       -6.05616        -4.99032        -7.14644
   H       -4.31156        -4.81587        -7.30940
   H       -5.82135        -4.54538        -4.66446
   H       -5.32137        -3.19494        -5.67911
   H       -4.10302        -4.21825        -4.93069
   H       -9.05797       -11.40225         2.03874
   H       -3.84877       -11.15920         3.31645
   H       -1.98308        -9.77844         1.30365
   H       -1.50313       -10.51563         2.91538
*
