# ORCA input file
# SCF done       -166.497290006613          0.000682803213
! CAM-B3LYP def2-SVP def2/J RIJCOSX Grid4 TightSCF
%maxcore 5000
%tddft
    Mode sTDDFT
    Ethresh 5.0
    maxcore 5000
end

%pal
  nprocs 6
  end
* xyz 0 1
   C       11.69787       -17.50197       -10.16143
   C       11.22890       -16.27696       -10.43048
   C       11.64780       -15.39058       -11.48116
   C       10.99119       -14.21276       -11.51020
   C       10.00046       -14.06336       -10.49358
   S        9.94421       -15.49800        -9.49090
   C        9.17727       -12.98972       -10.27675
   C        9.12855       -11.78022       -11.02018
   C        8.19858       -10.90536       -10.56759
   C        7.45922       -11.37195        -9.44185
   S        7.98966       -12.96489        -8.96619
   C        6.46141       -10.71783        -8.78253
   C        5.81786       -11.32577        -7.66705
   N        6.25906       -12.54411        -7.31636
   C        5.69312       -13.13312        -6.28466
   C        4.67825       -12.52944        -5.55960
   C        4.27068       -11.25888        -5.99167
   N        4.83444       -10.67303        -7.04245
   C        3.22787       -10.47354        -5.34974
   C        2.80016       -10.63889        -4.09186
   C        1.80255        -9.81321        -3.44847
   C        0.95522       -10.33826        -2.49166
   C        0.94629       -11.64514        -2.01180
   N        0.95912       -12.72386        -1.61569
   S       -0.21268        -9.17603        -1.93126
   C        0.46795        -7.96771        -2.97304
   O       -0.00815        -6.72115        -3.01140
   C       -1.03087        -6.38702        -2.09958
   C        1.54295        -8.43146        -3.71403
   C        2.37358        -7.62106        -4.56492
   C        2.03025        -6.44180        -5.11633
   C        2.88389        -5.69824        -5.98576
   S        2.34483        -4.12159        -6.53565
   C        3.77592        -3.93061        -7.47803
   C        4.61233        -5.04783        -7.35647
   C        4.10943        -6.04225        -6.51692
   S        6.06929        -4.90716        -8.29946
   C        5.55186        -3.33837        -8.85818
   C        6.11063        -2.39695        -9.71264
   C        5.30213        -1.27980        -9.85732
   S        3.82444        -1.41415        -8.90680
   C        4.30543        -2.95946        -8.32949
   C        5.51148        -0.12028       -10.63254
   C        6.61550         0.11946       -11.39697
   C        6.75048         1.30244       -12.14645
   C        7.83845         1.61950       -12.91835
   C        8.02351         2.82181       -13.70417
   C        7.12438         3.84378       -13.88182
   C        7.37074         4.98774       -14.66867
   N        7.50676         5.94184       -15.29288
   C        5.83072         3.90906       -13.32493
   N        4.76531         4.04267       -12.91629
   C        9.35299         2.75956       -14.30485
   C        9.96778         1.54177       -13.92571
   C        9.04816         0.77768       -13.05863
   O        9.26635        -0.31359       -12.57160
   C       11.23149         1.18991       -14.33218
   C       11.92619         2.08490       -15.15243
   C       11.30494         3.29976       -15.52640
   C       10.02551         3.65429       -15.11643
   S       12.33902         4.26041       -16.54068
   C       13.57530         3.03428       -16.44695
   C       13.23330         1.95948       -15.69793
  Br       15.19995         3.28751       -17.34970
   H       12.47879       -17.93618       -10.76074
   H       11.31301       -18.08790        -9.34727
   H       12.42422       -15.68191       -12.16637
   H       11.17541       -13.43247       -12.22724
   H        9.77475       -11.59382       -11.86013
   H        8.00571        -9.93641       -10.99394
   H        6.13924        -9.73585        -9.08788
   H        6.06722       -14.11785        -6.03484
   H        4.21208       -13.02461        -4.72496
   H        2.82635        -9.69055        -5.97683
   H        3.17215       -11.45906        -3.49085
   H       -1.26736        -5.34083        -2.28022
   H       -0.69514        -6.51891        -1.06667
   H       -1.92043        -7.00231        -2.26696
   H        3.35820        -8.02376        -4.75085
   H        1.05610        -6.01594        -4.92982
   H        4.61077        -6.97248        -6.32616
   H        7.05577        -2.51424       -10.20863
   H        4.72401         0.62328       -10.60372
   H        7.41702        -0.60060       -11.43984
   H        5.92864         2.00480       -12.09330
   H       11.67134         0.25396       -14.02505
   H        9.59857         4.59239       -15.42878
   H       13.87476         1.11275       -15.53493
*
