# ORCA input file
# SCF done       -202.882936625244          0.000684396339
! CAM-B3LYP def2-SVP def2/J RIJCOSX Grid4 TightSCF
%maxcore 5000
%tddft
    Mode sTDDFT
    Ethresh 5.0
    maxcore 5000
end

%pal
  nprocs 6
  end
* xyz 0 1
   C       12.71632        -9.83304       -12.11585
   C       12.21767        -9.31334       -10.98591
   C       12.70440        -8.17813       -10.25434
   C       11.99442        -7.88564        -9.14304
   C       10.89509        -8.75799        -8.90002
   S       10.79879        -9.97469       -10.15570
   C        9.99967        -8.70222        -7.85935
   C        9.97994        -7.78004        -6.78015
   C        8.94800        -7.97683        -5.92349
   C        8.10014        -9.07378        -6.25757
   S        8.68365        -9.85150        -7.70233
   C        6.94566        -9.36413        -5.57450
   C        5.99430       -10.38214        -5.75453
   O        4.77687       -10.14041        -5.20151
   C        3.95732       -11.18082        -5.49246
   C        4.64912       -12.11845        -6.23339
   C        5.96437       -11.63735        -6.39729
   C        7.08593       -12.39009        -6.93406
   O        8.24428       -12.09831        -6.69061
   C        6.73027       -13.59278        -7.77543
   C        2.61649       -11.19924        -5.03782
   C        2.05766       -10.21767        -4.28182
   C        0.73691       -10.22990        -3.79981
   S       -0.39909       -11.51010        -4.12855
   C       -1.67156       -10.78645        -3.18644
   C       -1.21809        -9.57671        -2.63874
   C        0.12853        -9.26266        -2.99103
   N        0.70908        -8.12667        -2.56162
   C       -0.01042        -7.32321        -1.81467
   C        0.62254        -6.04715        -1.35175
   C        1.96135        -5.76333        -2.04271
   O        2.94451        -6.71850        -1.75244
   C       -1.35116        -7.65766        -1.44262
   C       -2.16174        -6.77142        -0.53878
   N       -1.48530        -6.61045         0.74364
   N       -1.93407        -8.75894        -1.84666
   C       -2.93922       -11.36627        -3.01425
   C       -3.34994       -12.50630        -3.64005
   C       -4.59327       -13.16166        -3.48214
   C       -5.53796       -12.87564        -2.54418
   C       -6.75256       -13.58776        -2.42137
   O       -7.59437       -13.30219        -1.38966
   C       -8.67558       -14.12001        -1.47082
   C       -8.53359       -14.94245        -2.58192
   C       -7.30948       -14.61108        -3.18830
   O       -6.78789       -15.18065        -4.29900
   O       -9.36850       -15.91083        -3.05707
   C       -9.71667       -14.08263        -0.50596
   C       -9.74099       -13.27540         0.57980
   C      -10.79796       -13.29833         1.53393
   C      -10.80432       -12.50928         2.62348
   N      -11.77864       -12.48375         3.60417
   C      -12.87266       -13.32093         3.68433
   O      -13.17838       -14.17313         2.88175
   C      -13.61140       -13.01438         4.98502
   C      -12.83293       -11.87050         5.54242
   C      -11.74622       -11.61414         4.70329
   C      -10.84068       -10.61630         5.00060
   C      -11.02468        -9.86645         6.16078
   C      -12.10852       -10.12706         6.98796
   C      -13.01813       -11.13158         6.68816
   C      -10.03609        -8.79361         6.50349
   C      -13.55117       -14.27046         5.88503
   C      -12.11936       -14.82127         5.87131
   O      -11.11068       -14.24950         6.21047
   N      -12.18115       -16.08729         5.37306
   C      -13.47606       -16.46458         5.04333
   C      -14.34927       -15.41772         5.34931
   C      -15.69832       -15.56194         5.11793
   C      -16.15748       -16.75932         4.58584
   C      -15.29064       -17.80151         4.27991
   C      -15.81419       -19.06992         3.67749
   C      -13.92505       -17.65473         4.51321
   H       13.58175        -9.39952       -12.58532
   H       12.27333       -10.69142       -12.58634
   H       13.56631        -7.63323       -10.59686
   H       12.21687        -7.06992        -8.47815
   H       10.72231        -7.00984        -6.67074
   H        8.75740        -7.37729        -5.05050
   H        6.66611        -8.65434        -4.80422
   H        4.25366       -13.05064        -6.58051
   H        5.98883       -13.32864        -8.52505
   H        6.31891       -14.37381        -7.13857
   H        7.62804       -13.96985        -8.25803
   H        2.03275       -12.06407        -5.32001
   H        2.64935        -9.35587        -4.00521
   H        0.76496        -6.11205        -0.27018
   H       -0.06182        -5.21698        -1.53669
   H        2.35554        -4.80463        -1.69528
   H        1.79690        -5.70152        -3.12930
   H        2.58109        -7.56924        -2.04451
   H       -3.16645        -7.21475        -0.45895
   H       -2.25862        -5.77800        -0.99006
   H       -1.40051        -7.51160         1.20298
   H       -2.02833        -6.00545         1.34968
   H       -3.59448       -10.82570        -2.34655
   H       -2.65866       -12.95956        -4.34092
   H       -4.79147       -13.98382        -4.15411
   H       -5.38554       -12.09323        -1.81561
   H       -7.41374       -15.85061        -4.60529
   H      -10.14765       -15.96433        -2.49379
   H      -10.53542       -14.77299        -0.66703
   H       -8.92119       -12.58915         0.73883
   H      -11.60986       -13.98749         1.36197
   H       -9.99108       -11.82004         2.80012
   H      -14.65906       -12.77362         4.78536
   H       -9.99352       -10.40498         4.36656
   H      -12.24282        -9.54139         7.88512
   H      -13.85401       -11.32668         7.34340
   H       -9.88399        -8.12678         5.65627
   H       -9.07401        -9.23972         6.75373
   H      -10.37477        -8.20793         7.35377
   H      -13.83958       -13.98757         6.90113
   H      -11.36445       -16.65417         5.20814
   H      -16.39046       -14.76436         5.34416
   H      -17.21396       -16.88374         4.39962
   H      -16.83724       -19.25756         3.99432
   H      -15.19515       -19.91872         3.95854
   H      -15.80679       -18.99248         2.58986
   H      -13.23831       -18.45407         4.27806
*
