# ORCA input file
# SCF done       -151.182401816084          0.000224313818
! CAM-B3LYP def2-SVP def2/J RIJCOSX Grid4 TightSCF
%maxcore 5000
%tddft
    Mode sTDDFT
    Ethresh 5.0
    maxcore 5000
end

%pal
  nprocs 6
  end
* xyz 0 1
   C        3.18427         8.21121         1.71400
   S        4.89077         8.29275         1.52328
   C        4.96308         6.56637         1.27679
   C        3.72705         5.98432         1.35921
   C        2.70717         6.94482         1.61355
   C        1.26180         6.57739         1.76536
   C        0.90496         6.50502         3.25397
   C        0.99029         5.25757         1.03823
   C        1.99362         4.18067         1.43294
   C        3.43481         4.54540         1.04444
   C        3.68465         4.31687        -0.42245
   C        4.51440         3.40727        -0.89574
   N        6.20825         6.01149         1.02672
   C        6.70623         4.82789         1.46711
   S        7.95385         4.08763         0.50511
   C        7.95129         2.71090         1.56530
   N        8.84596         1.67771         1.30326
   O        8.83009         0.70930         2.04575
   O        9.58486         1.81522         0.33966
   C        7.04384         2.83016         2.58499
   C        6.33950         4.04723         2.56944
   C        5.40547         4.39513         3.62048
   C        5.15493         5.63336         4.07527
   C        4.16615         5.89758         5.08197
   C        3.83122         7.08987         5.59732
   C        4.48121         8.39647         5.28395
   C        2.72770         7.17253         6.62990
   N        3.24787         7.23502         7.97640
   C        3.58103         8.39777         8.57953
   C        4.21432         8.48696         9.77893
   C        4.54207         9.68772        10.44620
   C        4.59778        10.96264         9.94535
   C        4.89672        12.13088        10.69082
   C        4.97029        13.27633         9.95793
   C        4.75068        13.09036         8.57646
   S        4.40250        11.40464         8.24907
   C        4.80480        14.02377         7.56162
   C        4.99911        15.41816         7.65790
   C        5.02847        16.05602         6.45543
   C        4.87800        15.20984         5.32614
   S        4.65723        13.55403         5.88014
   C        4.91921        15.62127         4.02001
   C        4.85740        14.84947         2.83859
   C        4.92437        15.37112         1.54493
   C        4.87658        14.30155         0.61368
   C        4.92745        14.26706        -0.76010
   C        4.87731        13.00820        -1.38903
   C        4.92298        12.64435        -2.72404
   C        4.84621        11.21574        -2.82229
   C        4.75195        10.70321        -1.54381
   C        4.77088        11.78663        -0.61039
   C        4.72038        11.81700         0.75565
   C        4.77269        13.07691         1.38774
   C        4.75862        13.41962         2.72393
   C        4.86767        10.43105        -4.03228
   C        4.97436        10.91138        -5.26848
   H        2.63108         9.11515         1.87535
   H        0.64685         7.36301         1.31197
   H        1.55728         5.80940         3.77456
   H       -0.12697         6.18575         3.37974
   H        1.02531         7.48282         3.71359
   H        1.04242         5.42603        -0.03895
   H       -0.02074         4.91789         1.27100
   H        1.73212         3.23735         0.94950
   H        1.95005         4.02347         2.51168
   H        4.11051         3.89395         1.60559
   H        3.13673         4.96211        -1.09566
   H        5.07055         2.75197        -0.24477
   H        4.66942         3.26855        -1.95186
   H        6.78420         6.50760         0.35944
   H        6.92147         2.07139         3.33711
   H        4.91350         3.55091         4.08804
   H        5.70953         6.46993         3.68213
   H        3.61935         5.02388         5.42082
   H        4.82752         8.86976         6.20339
   H        3.75844         9.07226         4.82624
   H        5.32641         8.29051         4.61330
   H        2.07330         6.29858         6.55865
   H        2.12953         8.07173         6.46187
   H        3.68054         6.39274         8.32731
   H        3.21758         9.28408         8.08250
   H        4.46304         7.56813        10.29498
   H        4.81868         9.59126        11.48890
   H        5.05231        12.08311        11.75473
   H        5.19999        14.24363        10.36804
   H        5.10634        15.91094         8.60794
   H        5.16731        17.11667         6.33662
   H        5.04015        16.68848         3.87295
   H        5.00624        16.41249         1.29258
   H        5.00946        15.17061        -1.34799
   H        5.00470        13.31916        -3.55626
   H        4.67761         9.66406        -1.27811
   H        4.65693        10.91467         1.34776
   H        4.69576        12.73014         3.54474
   H        4.79083         9.36057        -3.88134
   H        5.05514        11.96569        -5.46951
   H        4.98598        10.26214        -6.12697
*
