# ORCA input file
# SCF done       -164.773687385039          0.000580421478
! CAM-B3LYP def2-SVP def2/J RIJCOSX Grid4 TightSCF
%maxcore 5000
%tddft
    Mode sTDDFT
    Ethresh 5.0
    maxcore 5000
end

%pal
  nprocs 6
  end
* xyz 0 1
   C        1.29846        -2.43984         0.95796
   S        2.00929        -3.54834         2.06766
   C        0.99405        -4.87130         1.55837
   C        1.07199        -6.20808         2.20758
   C        0.36339        -6.20351         3.56410
   C        0.15855        -4.43305         0.58473
   C        0.32422        -3.04650         0.22909
   N       -0.51487        -2.61340        -0.75600
   C       -1.28528        -3.55368        -1.16031
   S       -1.10192        -5.15222        -0.38572
   N       -2.21414        -3.37912        -2.12746
   C       -2.41239        -2.16580        -2.72794
   S       -1.45819        -0.81328        -2.25182
   C       -2.34022         0.16005        -3.39638
   N       -1.99954         1.50994        -3.51893
   O       -2.62186         2.18532        -4.31988
   O       -1.09503         1.91705        -2.80993
   C       -3.30170        -0.52807        -4.08468
   C       -3.36139        -1.88643        -3.71560
   C       -4.25287        -2.86749        -4.27956
   C       -5.28836        -2.59303        -5.09355
   C       -6.12753        -3.61129        -5.65538
   C       -7.20620        -3.39360        -6.42381
   C       -7.69465        -2.03205        -6.81438
   C       -8.00024        -4.55330        -6.97394
   N       -7.91985        -4.58477        -8.41569
   C       -8.90786        -4.19844        -9.23540
   C       -8.74702        -3.98212       -10.57455
   C       -9.75325        -3.64430       -11.49445
   C      -11.11319        -3.52582       -11.32478
   C      -12.02637        -3.18640       -12.35125
   C      -13.33519        -3.16649       -11.96965
   C      -13.53805        -3.48846       -10.61196
   S      -12.00991        -3.80348        -9.83455
   C      -14.73678        -3.57650        -9.92207
   C      -16.03668        -3.35671       -10.41204
   C      -17.01590        -3.54605        -9.47700
   C      -16.53588        -3.91828        -8.20547
   S      -14.79532        -4.02952        -8.22967
   C      -17.30014        -4.19089        -7.08205
   C      -16.76363        -4.51571        -5.84762
   C      -17.43858        -4.84538        -4.68490
   C      -16.75511        -4.69933        -3.38673
   O      -15.57240        -4.48996        -3.19839
   C      -17.81881        -4.81467        -2.36545
   C      -17.73480        -4.67155        -1.01238
   C      -18.90717        -4.79495        -0.23082
   C      -20.14857        -5.05987        -0.87640
   C      -21.31402        -5.17413        -0.09461
   C      -21.22876        -5.03348         1.26250
   C      -20.01779        -4.77569         1.91653
   C      -18.87684        -4.65907         1.17124
   F      -22.34385        -5.14450         2.01284
   C      -20.20283        -5.21180        -2.28314
   C      -19.05401        -5.09755        -3.01528
   C      -18.79650        -5.23638        -4.45108
   C      -19.65986        -5.83544        -5.34406
   C      -19.29952        -6.25714        -6.63719
   N      -19.05602        -6.67330        -7.68067
   C      -20.97938        -6.20837        -5.03142
   N      -22.07246        -6.51277        -4.84611
   H        1.63536        -1.42560         0.91165
   H        2.11862        -6.48516         2.34867
   H        0.60324        -6.94340         1.54909
   H        0.82579        -5.47609         4.22722
   H        0.42861        -7.18597         4.02368
   H       -0.68607        -5.94509         3.44293
   H       -2.79835        -4.15964        -2.39091
   H       -3.91977        -0.06374        -4.83039
   H       -4.06053        -3.90322        -4.02587
   H       -5.51789        -1.56926        -5.34193
   H       -5.85452        -4.63250        -5.41773
   H       -6.88773        -1.42173        -7.21534
   H       -8.10430        -1.51492        -5.94745
   H       -8.47594        -2.10235        -7.56699
   H       -9.05277        -4.45679        -6.69385
   H       -7.61731        -5.49797        -6.57463
   H       -6.98925        -4.65788        -8.80391
   H       -9.87423        -4.09140        -8.76609
   H       -7.74683        -4.07297       -10.97881
   H       -9.41304        -3.45707       -12.50575
   H      -11.68643        -2.97126       -13.34923
   H      -14.15365        -2.93705       -12.62729
   H      -16.22284        -3.06887       -11.43119
   H      -18.06852        -3.43661        -9.66715
   H      -18.37060        -4.11160        -7.20312
   H      -15.68770        -4.41843        -5.73147
   H      -16.78583        -4.46603        -0.53982
   H      -22.26407        -5.37570        -0.56448
   H      -20.01086        -4.67499         2.99035
   H      -17.93087        -4.45985         1.65247
   H      -21.15791        -5.40879        -2.74352
*
