# ORCA input file
# SCF done       -208.218712047129          0.000765054968
! CAM-B3LYP def2-SVP def2/J RIJCOSX Grid4 TightSCF
%maxcore 5000
%tddft
    Mode sTDDFT
    Ethresh 5.0
    maxcore 5000
end

%pal
  nprocs 6
  end
* xyz 0 1
   C       -2.05874        -0.68236        -4.24235
   C       -1.57341        -0.45063        -5.50548
   C       -1.03896        -1.45218        -6.34124
   N       -0.59818        -2.22168        -7.07105
   C       -1.50360         0.80493        -6.14403
   N       -1.38918         1.78398        -6.73512
   C       -2.03539        -1.96900        -3.55823
   C       -2.50294        -1.78346        -2.23615
   C       -2.59517        -2.81044        -1.32920
   C       -2.20367        -4.08645        -1.74748
   C       -1.74107        -4.26450        -3.07248
   C       -1.64971        -3.22505        -3.98975
   S       -1.31331        -5.92077        -3.38234
   C       -1.75407        -6.34348        -1.74902
   C       -2.19901        -5.30130        -1.00835
  Br       -1.58406        -8.12156        -1.17526
   C       -2.85610        -0.36317        -2.02724
   O       -3.32046         0.10021        -1.00741
   C       -2.59851         0.30688        -3.32541
   C       -2.97370         1.56821        -3.69413
   C       -3.39774         2.67618        -2.89692
   C       -4.17536         3.67387        -3.52470
   C       -4.59802         4.75864        -2.80586
   C       -4.23339         4.90246        -1.45140
   C       -3.42630         3.95247        -0.83592
   C       -3.01735         2.85227        -1.55559
   C       -4.80571         6.12322        -0.94896
   C       -5.52438         6.74923        -1.98542
   C       -5.44518         5.92844        -3.25251
   C       -4.76071         6.71314        -4.38743
   C       -3.36652         7.20087        -4.01240
   C       -6.84079         5.46701        -3.71128
   C       -7.58768         4.68580        -2.63680
   C       -6.16977         7.93880        -1.76561
   C       -6.12435         8.54197        -0.49321
   C       -5.39769         7.89842         0.52682
   C       -4.74455         6.70745         0.31101
   C       -6.81613         9.78093        -0.28303
   C       -6.90352        10.43578         0.90537
   C       -7.56875        11.64980         1.14620
   C       -7.59355        12.21890         2.39708
   C       -8.19602        13.42734         2.82210
   C       -8.02604        13.70954         4.14684
   C       -7.28165        12.73876         4.84782
   S       -6.80226        11.44946         3.76452
   C       -6.90818        12.67306         6.17525
   C       -7.14090        13.56078         7.24752
   C       -6.60162        13.14875         8.42846
   C       -5.90975        11.90668         8.37689
   S       -5.97743        11.29995         6.72696
   C       -5.33233        11.27787         9.44631
   C       -4.65567        10.02578         9.50555
   C       -4.32577         9.47557        10.77428
   O       -4.66097        10.22725        11.86189
   C       -4.37749         9.72599        13.14486
   C       -3.71911         8.23803        10.84868
   C       -3.40536         7.48848         9.71003
   C       -3.70545         8.04811         8.44216
   C       -4.30294         9.28656         8.36710
   O       -3.37443         7.30215         7.35298
   C       -3.70151         7.78157         6.06256
   C       -3.31019         6.70668         5.05994
   C       -2.80543         6.18261         9.75685
   C       -2.39342         5.51210        10.85033
   C       -1.80690         4.19338        10.85064
   C       -1.19245         3.70794        12.02578
   O       -1.19552         4.54756        13.10611
   C       -0.59302         4.11219        14.29830
   C       -0.61929         2.44956        12.02624
   C       -0.63177         1.62853        10.89968
   C       -1.25384         2.10606         9.72573
   C       -1.82615         3.36460         9.72650
   O       -1.26649         1.25158         8.66122
   C       -1.80259         1.66764         7.42285
   C       -0.87398         2.60399         6.65401
   C       -0.02222         0.30874        10.89228
   C        0.43232        -0.36647        11.94316
   H       -2.95630        -2.63412        -0.32807
   H       -1.29552        -3.41426        -4.98905
   H       -2.51182        -5.38314         0.01659
   H       -2.98424         1.76979        -4.75967
   H       -4.44411         3.55564        -4.56487
   H       -3.11955         4.07598         0.19159
   H       -2.37236         2.12724        -1.09015
   H       -5.38690         7.56981        -4.64559
   H       -4.69452         6.07022        -5.26742
   H       -3.40859         7.85791        -3.14633
   H       -2.92813         7.75105        -4.84159
   H       -2.71621         6.36174        -3.77561
   H       -6.72783         4.84394        -4.60097
   H       -7.42470         6.34623        -3.99176
   H       -7.03091         3.79642        -2.34981
   H       -8.56193         4.37667        -3.00851
   H       -7.73596         5.29789        -1.74985
   H       -6.72232         8.42388        -2.55810
   H       -5.34441         8.34777         1.50583
   H       -4.19329         6.23193         1.10890
   H       -7.30651        10.20910        -1.14864
   H       -6.42542        10.00478         1.77515
   H       -8.07334        12.15742         0.33586
   H       -8.73642        14.05368         2.13388
   H       -8.41577        14.58529         4.63549
   H       -7.69770        14.47209         7.11864
   H       -6.67983        13.69688         9.35123
   H       -5.43635        11.78452        10.39660
   H       -4.73118        10.48570        13.84054
   H       -3.30313         9.57527        13.29022
   H       -4.90694         8.78722        13.33575
   H       -3.48079         7.81168        11.80839
   H       -4.49342         9.71800         7.40236
   H       -3.15317         8.71033         5.85442
   H       -4.77800         7.98834         5.99604
   H       -2.24695         6.49514         5.13607
   H       -3.53514         7.04693         4.05334
   H       -3.86250         5.79210         5.25891
   H       -2.68250         5.73622         8.78154
   H       -2.46244         5.96522        11.82795
   H       -0.71975         4.92963        15.00708
   H        0.47569         3.91680        14.16256
   H       -1.08062         3.21472        14.69308
   H       -0.13314         2.07831        12.91252
   H       -2.32480         3.73176         8.84612
   H       -2.79153         2.12240         7.56013
   H       -1.93121         0.73660         6.86276
   H       -0.70826         3.52822         7.20180
   H       -1.31228         2.83878         5.68778
   H        0.08767         2.12150         6.49784
   H        0.03706        -0.14209         9.91169
   H        0.38230         0.00794        12.95157
   H        0.87076        -1.34277        11.82903
*
