# ORCA input file
# SCF done       -216.428361351509          0.000551151471
! CAM-B3LYP def2-SVP def2/J RIJCOSX Grid4 TightSCF
%maxcore 5000
%tddft
    Mode sTDDFT
    Ethresh 5.0
    maxcore 5000
end

%pal
  nprocs 6
  end
* xyz 0 1
   C       -5.54821        -0.66692         5.40868
   C       -6.75582        -0.94502         5.99339
   C       -6.97088        -2.02022         6.88206
   N       -7.21033        -2.87125         7.61422
   C       -7.96685        -0.25370         5.77198
   N       -9.00042         0.23095         5.64293
   C       -4.34203        -1.46699         5.56636
   C       -3.37280        -0.99875         4.64897
   C       -2.12140        -1.55552         4.54245
   C       -1.80807        -2.62123         5.39189
   C       -2.78087        -3.07746         6.31364
   C       -4.04842        -2.51887         6.41512
   S       -2.18223        -4.39582         7.27453
   C       -0.65567        -4.31868         6.43542
   C       -0.59457        -3.35619         5.48481
  Br        0.71392        -5.51475         6.89511
   C       -3.92064         0.13728         3.87983
   O       -3.34857         0.69780         2.96933
   C       -5.25750         0.40921         4.46423
   C       -6.07151         1.49782         4.34177
   C       -6.05032         2.68044         3.53650
   C       -6.99412         3.67584         3.87783
   C       -7.05401         4.83705         3.15657
   C       -6.19249         5.03901         2.05987
   C       -5.26677         4.06655         1.70603
   C       -5.20050         2.90077         2.43946
   C       -6.48419         6.32866         1.48054
   C       -7.51638         6.93296         2.22297
   C       -7.95678         6.03250         3.35323
   C       -9.44427         5.65320         3.22811
   C       -9.77108         4.95819         1.91228
   C       -7.71122         6.69588         4.72232
   C       -6.26156         7.11896         4.92744
   C       -7.98540         8.17923         1.88904
   C       -7.43116         8.85131         0.78830
   C       -6.41366         8.22584         0.04833
   C       -5.93049         6.98008         0.38585
   C       -7.85699        10.16230         0.37547
   C       -8.66874        11.01371         1.03905
   C       -8.98192        12.30445         0.52164
   S       -8.31583        12.78272        -1.01052
   C       -9.01636        14.37809        -0.93254
   C       -9.72293        14.51682         0.26076
   C       -9.73689        13.34059         1.05038
   C      -10.50329        13.21440         2.33219
   F      -10.87934        11.94567         2.58720
   F       -9.78888        13.59950         3.40626
   F      -11.63853        13.91960         2.33999
   C      -10.37652        15.79523         0.68343
   F       -9.82699        16.87900         0.10665
   F      -11.68533        15.84611         0.37162
   F      -10.27871        16.01509         2.00178
   C       -8.81010        15.26356        -2.01360
   C       -8.08729        14.85426        -3.10194
   C       -7.74409        15.56167        -4.25301
   C       -7.00508        14.95029        -5.25015
   C       -6.50607        15.48229        -6.45760
   C       -5.78531        14.59423        -7.21109
   C       -5.68941        13.31237        -6.64073
   S       -6.53839        13.26610        -5.11429
   C       -5.05667        12.16386        -7.09280
   C       -4.27353        11.94956        -8.24419
   C       -3.79334        10.67610        -8.35018
   C       -4.17694         9.80945        -7.29705
   S       -5.17631        10.69479        -6.15850
   C       -3.82538         8.48880        -7.15954
   C       -4.21234         7.58564        -6.14828
   C       -5.09498         7.75880        -5.07654
   C       -5.17431         6.54473        -4.35222
   C       -5.91872         6.18715        -3.24850
   C       -5.78753         4.87413        -2.76988
   C       -6.40495         4.20943        -1.71922
   C       -5.91605         2.86529        -1.66571
   C       -4.99259         2.70394        -2.68238
   C       -4.88428         3.93097        -3.40937
   C       -4.14790         4.27815        -4.50850
   C       -4.28893         5.59432        -5.00404
   C       -3.72145         6.23261        -6.08665
   C       -6.30979         1.83761        -0.73216
   C       -7.26627         1.95606         0.18433
   H       -1.40602        -1.17773         3.82886
   H       -4.75173        -2.89904         7.13673
   H        0.27006        -3.16994         4.87432
   H       -6.91253         1.49696         5.02738
   H       -7.65993         3.51198         4.71333
   H       -4.61064         4.21373         0.86159
   H       -4.48593         2.14487         2.16489
   H      -10.04320         6.56160         3.31679
   H       -9.70964         4.99581         4.05821
   H       -9.50669         5.58974         1.06616
   H      -10.83519         4.74133         1.85909
   H       -9.22741         4.01943         1.83161
   H       -7.99832         5.99245         5.50648
   H       -8.35857         7.57091         4.80606
   H       -5.59560         6.26070         4.86633
   H       -6.14269         7.57672         5.90657
   H       -5.95980         7.84135         4.17213
   H       -8.77956         8.63760         2.45734
   H       -5.99260         8.74942        -0.79827
   H       -5.14125         6.51983        -0.18950
   H       -7.44577        10.49648        -0.57041
   H       -9.08052        10.74934         1.99924
   H       -9.23116        16.25478        -1.97515
   H       -7.71792        13.83395        -3.07204
   H       -8.03616        16.59444        -4.37428
   H       -6.68444        16.50579        -6.73686
   H       -5.32984        14.83389        -8.15569
   H       -4.07870        12.73336        -8.95418
   H       -3.17352        10.32986        -9.15891
   H       -3.17015         8.09273        -7.92630
   H       -5.64635         8.64602        -4.83336
   H       -6.58950         6.88407        -2.76650
   H       -7.13043         4.63385        -1.04973
   H       -4.44702         1.80535        -2.90544
   H       -3.48313         3.57855        -4.99553
   H       -3.02168         5.80798        -6.78450
   H       -5.76301         0.90729        -0.81951
   H       -7.83852         2.86042         0.29999
   H       -7.51259         1.14887         0.85191
*
