# ORCA input file
# SCF done       -208.745339920206          0.000559946679
! CAM-B3LYP def2-SVP def2/J RIJCOSX Grid4 TightSCF
%maxcore 5000
%tddft
    Mode sTDDFT
    Ethresh 5.0
    maxcore 5000
end

%pal
  nprocs 6
  end
* xyz 0 1
   C       -2.54787        -1.58139         0.36312
   C       -2.74619        -2.39831        -0.71959
   C       -2.26431        -3.72071        -0.80842
   N       -1.90019        -4.80238        -0.93272
   C       -3.41729        -2.02614        -1.90369
   N       -3.93226        -1.79618        -2.90430
   C       -1.77183        -1.91606         1.54867
   C       -1.65745        -0.75813         2.35494
   C       -0.97905        -0.75138         3.54942
   C       -0.38520        -1.94614         3.96924
   C       -0.50856        -3.10004         3.15870
   C       -1.19367        -3.10643         1.95043
   S        0.29125        -4.46912         3.86998
   C        0.77608        -3.48584         5.22596
   C        0.36112        -2.19891         5.15271
  Br        1.78086        -4.25230         6.61188
   C       -2.37014         0.36841         1.71616
   O       -2.46650         1.49001         2.16261
   C       -2.98899        -0.20153         0.49023
   C       -3.97542         0.36767        -0.25610
   C       -4.41690         1.73243        -0.27499
   C       -5.76500         1.98492        -0.59598
   C       -6.22490         3.27495        -0.62014
   C       -5.34547         4.34840        -0.38047
   C       -4.00128         4.11326        -0.11778
   C       -3.54819         2.81306        -0.05890
   C       -6.09492         5.57761        -0.45469
   C       -7.44347         5.27267        -0.72653
   C       -7.61604         3.78459        -0.93367
   C       -7.89516         3.44427        -2.41758
   C       -9.16760         4.03798        -3.00678
   C       -8.67763         3.18190        -0.00262
   C       -8.35584         3.41359         1.46946
   C       -8.38421         6.27125        -0.74335
   C       -7.99631         7.61212        -0.55120
   C       -6.63711         7.89624        -0.32624
   C       -5.69502         6.89509        -0.26307
   C       -9.00335         8.63145        -0.57784
   C       -8.78183         9.97521        -0.57084
   C       -9.79093        10.94981        -0.57684
   C       -9.52927        12.30089        -0.61381
   C      -10.45330        13.36932        -0.59765
   C       -9.87844        14.60802        -0.65720
   C       -8.47326        14.58091        -0.73165
   S       -7.89333        12.93646        -0.70613
   C       -7.57789        15.63824        -0.83849
   C       -7.84092        17.01836        -0.87204
   C       -6.71042        17.77156        -1.01707
   C       -5.50964        17.02808        -1.11170
   S       -5.86400        15.32387        -0.97812
   C       -4.28044        17.62584        -1.31958
   C       -2.99984        17.09631        -1.50591
   C       -1.91956        17.99125        -1.79337
   C       -0.58146        17.52746        -2.07287
   N        0.36463        18.43058        -2.37787
   C        0.07281        19.70903        -2.39223
   C       -1.24317        20.16421        -2.08363
   N       -2.19437        19.29657        -1.80471
   C       -1.54553        21.54531        -2.07863
   N       -1.76008        22.67174        -2.08237
   C        1.09466        20.63522        -2.71812
   N        1.90695        21.40233        -2.97272
   C       -0.23201        16.15215        -2.06428
   C       -1.28905        15.26930        -1.72676
   C       -2.63169        15.72860        -1.45342
   N       -3.44269        14.72764        -1.14360
   S       -2.62823        13.33710        -1.18134
   N       -1.19929        13.94474        -1.59697
   C        1.07854        15.66998        -2.38090
   C        2.25656        16.40772        -2.55011
   C        3.31271        15.51859        -2.86891
   C        4.64907        15.73903        -3.12807
   C        5.44629        14.62288        -3.41706
   C        6.80166        14.50732        -3.71353
   C        7.11493        13.13429        -3.92800
   C        5.94859        12.39792        -3.76469
   C        4.88291        13.28528        -3.44464
   C        3.55141        13.06402        -3.18727
   C        2.75238        14.18194        -2.89491
   C        1.40263        14.29154        -2.59683
   C        8.40407        12.57533        -4.25562
   C        9.53071        13.26587        -4.41067
   H       -0.90907         0.14776         4.14138
   H       -1.26600        -4.01216         1.37191
   H        0.57034        -1.45749         5.90204
   H       -4.54400        -0.29200        -0.90257
   H       -6.42703         1.15193        -0.78496
   H       -3.32004         4.93533         0.03982
   H       -2.50412         2.62215         0.12360
   H       -7.93421         2.35645        -2.50628
   H       -7.04226         3.79178        -3.00664
   H      -10.04713         3.72638        -2.44959
   H       -9.28098         3.69443        -4.03270
   H       -9.12033         5.12352        -3.01853
   H       -8.74808         2.10951        -0.19619
   H       -9.64706         3.62745        -0.22904
   H       -7.40411         2.95780         1.73360
   H       -9.13122         2.97845         2.09581
   H       -8.29589         4.47818         1.68552
   H       -9.43019         6.04935        -0.89607
   H       -6.32652         8.91719        -0.17012
   H       -4.66099         7.12871        -0.05852
   H      -10.02891         8.28462        -0.62236
   H       -7.76746        10.35107        -0.57049
   H      -10.82589        10.63598        -0.54790
   H      -11.51325        13.19393        -0.54213
   H      -10.42928        15.53158        -0.65571
   H       -8.83351        17.42452        -0.79185
   H       -6.70351        18.84630        -1.06939
   H       -4.31013        18.70793        -1.38293
   H        2.35470        17.47021        -2.44894
   H        5.07120        16.73381        -3.11281
   H        7.49907        15.32261        -3.77079
   H        5.85770        11.33121        -3.86250
   H        3.12466        12.07098        -3.20380
   H        0.69792        13.48465        -2.53887
   H        8.41566        11.49906        -4.37672
   H        9.56875        14.33592        -4.30022
   H       10.45921        12.77988        -4.65500
*
