# ORCA input file
# SCF done       -198.536830394781          0.000955102344
! CAM-B3LYP def2-SVP def2/J RIJCOSX Grid4 TightSCF
%maxcore 5000
%tddft
    Mode sTDDFT
    Ethresh 5.0
    maxcore 5000
end

%pal
  nprocs 6
  end
* xyz 0 1
   C       -2.47168        -1.42687        -1.39872
   C       -1.83698        -1.34224        -2.61004
   C       -1.30303        -2.45047        -3.30030
   N       -0.85652        -3.31548        -3.90865
   C       -1.59636        -0.14680        -3.32048
   N       -1.34538         0.77816        -3.95282
   C       -2.64267        -2.64103        -0.61332
   C       -3.20243        -2.29355         0.63946
   C       -3.48626        -3.22524         1.60827
   C       -3.20386        -4.56574         1.32689
   C       -2.64785        -4.90459         0.06996
   C       -2.36062        -3.96240        -0.90921
   S       -2.38586        -6.61673        -0.07222
   C       -3.01672        -6.85033         1.53647
   C       -3.40414        -5.70728         2.15051
  Br       -3.10668        -8.58156         2.25233
   C       -3.42210        -0.83307         0.70165
   O       -3.89566        -0.22807         1.63764
   C       -3.01856        -0.31687        -0.63276
   C       -3.31931         0.90508        -1.15103
   C       -3.80929         2.07469        -0.47933
   C       -4.65260         2.93787        -1.20551
   C       -5.16950         4.04940        -0.59498
   C       -4.82059         4.36316         0.73316
   C       -3.94036         3.55177         1.43664
   C       -3.44882         2.41264         0.83324
   C       -5.51511         5.57270         1.11494
   C       -6.30220         5.99784         0.03054
   C       -6.12761         5.07523        -1.15206
   C       -5.51594         5.81871        -2.35496
   C       -4.18615         6.48610        -2.02530
   C       -7.46178         4.42862        -1.56754
   C       -8.13283         3.67286        -0.42678
   C       -7.10185         7.10812         0.14269
   C       -7.12770         7.83251         1.34319
   C       -6.32290         7.40765         2.40736
   C       -5.52254         6.28769         2.30489
   C       -8.02097         8.96963         1.44039
   C       -8.01007         9.92689         2.37694
   C       -9.01090        10.98729         2.43918
   C       -8.73847        12.33003         2.73933
   N       -7.53551        12.98385         2.95226
   C       -6.25743        12.52309         2.45529
   C       -6.26914        12.36272         0.93550
   C       -7.80916        14.30930         3.23346
   C       -9.20561        14.52276         3.17955
   C       -9.79974        13.25560         2.87155
   C      -11.12165        12.87758         2.68384
   C      -11.38441        11.56442         2.35296
   C      -10.34848        10.64861         2.23536
   C       -9.75225        15.78313         3.37357
   C       -8.89486        16.83796         3.61228
   C       -7.52558        16.62790         3.69707
   C       -6.94558        15.36889         3.54439
   C       -5.51448        15.23106         3.79576
   C       -4.59984        16.08153         3.30374
   C       -3.19870        16.06005         3.60320
   S       -2.12320        17.06071         2.68310
   C       -0.75831        16.52125         3.61408
   C        0.55983        16.93113         3.22466
   O        0.81804        17.74785         2.36814
   C       -1.14093        15.62480         4.60931
   C       -2.52157        15.36010         4.57641
   C       -0.25312        15.06778         5.60622
   C        0.84444        15.74596         6.21171
   C        1.43335        14.89983         7.14573
   C        2.53025        15.08376         8.00674
   C        2.87067        14.04114         8.83266
   C        3.90473        13.89491         9.80677
   C        3.81429        12.63273        10.37293
   C        2.71794        11.95682         9.76358
   C        2.13073        12.79917         8.82175
   C        1.03480        12.61620         7.96464
   C        0.69307        13.65969         7.13501
   C       -0.35142        13.80831         6.17470
   C        4.69089        12.12037        11.39962
   C        4.61308        10.91451        11.95482
   H       -3.91346        -2.92847         2.55335
   H       -1.94316        -4.27050        -1.85319
   H       -3.81560        -5.66867         3.14258
   H       -3.23731         1.01414        -2.22712
   H       -4.91013         2.69176        -2.22588
   H       -3.64646         3.80253         2.44446
   H       -2.75218         1.78781         1.36640
   H       -6.22641         6.57518        -2.69494
   H       -5.37101         5.10617        -3.16950
   H       -4.30870         7.21564        -1.22759
   H       -3.79799         6.99761        -2.90287
   H       -3.45342         5.74817        -1.70630
   H       -7.27523         3.74339        -2.39710
   H       -8.13230         5.21174        -1.92756
   H       -7.49162         2.87235        -0.06422
   H       -9.06889         3.23617        -0.76723
   H       -8.34706         4.34196         0.40371
   H       -7.71772         7.43191        -0.68461
   H       -6.34764         7.95202         3.33916
   H       -4.92083         5.96746         3.14246
   H       -8.75196         9.04152         0.64364
   H       -7.25990         9.92200         3.15460
   H       -5.98331        11.58010         2.93243
   H       -5.50826        13.26962         2.71994
   H       -6.98707        11.60699         0.62847
   H       -5.28260        12.06446         0.59075
   H       -6.53291        13.30740         0.46480
   H      -11.91736        13.59764         2.79557
   H      -12.40115        11.23611         2.19794
   H      -10.58368         9.61762         2.01586
   H      -10.82058        15.92862         3.33257
   H       -9.28639        17.83356         3.75614
   H       -6.87906        17.45917         3.93614
   H       -5.21290        14.43950         4.47037
   H       -4.91239        16.84194         2.60060
   H        1.36607        16.39707         3.76729
   H       -3.00542        14.70694         5.28023
   H        1.12952        16.76325         6.01330
   H        3.07969        16.01474         8.00664
   H        4.63037        14.64832        10.05477
   H        2.39673        10.95726         9.99339
   H        0.48129        11.68729         7.96657
   H       -1.07127        13.05205         5.92053
   H        5.46565        12.80667        11.71877
   H        3.86221        10.19745        11.67029
   H        5.30594        10.59952        12.71558
*
