# ORCA input file
# SCF done       -210.314522541709          0.000891051920
! CAM-B3LYP def2-SVP def2/J RIJCOSX Grid4 TightSCF
%maxcore 5000
%tddft
    Mode sTDDFT
    Ethresh 5.0
    maxcore 5000
end

%pal
  nprocs 6
  end
* xyz 0 1
   C       -0.66914         3.83484        -1.39804
   C       -0.63455         4.56312        -2.55429
   F        0.38273         5.40336        -2.80207
   C       -1.65368         4.43619        -3.51767
   F       -1.56123         5.12870        -4.66437
   C       -2.71534         3.60422        -3.30208
   C       -2.78908         2.84908        -2.11594
   C       -1.74317         2.95430        -1.15320
   C       -1.78087         2.17926         0.03069
   C       -2.83002         1.32414         0.24114
   C       -3.87076         1.22687        -0.72828
   C       -3.86623         1.96856        -1.87428
   C       -4.83514         0.21230        -0.29097
   O       -5.86094        -0.14093        -0.86376
   C       -4.31884        -0.32721         0.97123
   C       -3.11967         0.39511         1.33398
   C       -2.39885         0.26510         2.49084
   C       -2.73007        -0.63687         3.52290
   N       -2.97264        -1.36009         4.38071
   C       -1.25893         1.03348         2.80929
   N       -0.33541         1.63346         3.12948
   C       -4.92545        -1.38755         1.59935
   N       -6.00834        -1.96046         1.05924
   C       -6.70997        -3.01548         1.54721
   S       -6.52314        -3.54259         3.19121
   C       -7.80118        -4.68890         2.94750
   N       -8.15467        -5.51693         4.02633
   O       -9.05572        -6.31295         3.85108
   O       -7.52599        -5.36765         5.05699
   C       -8.33370        -4.66121         1.68893
   C       -7.70303        -3.71976         0.84780
   C       -8.05326        -3.55384        -0.53307
   C       -7.23430        -3.06420        -1.50040
   C       -7.61838        -2.81572        -2.83110
   C       -6.78622        -2.20382        -3.73494
   C       -7.08586        -1.80614        -5.06115
   C       -6.08359        -1.11879        -5.67801
   C       -4.93537        -0.94374        -4.87404
   S       -5.15041        -1.70994        -3.32631
   C       -3.78290        -0.22932        -5.16432
   C       -3.47338         0.50637        -6.32350
   C       -2.27782         1.16778        -6.26276
   C       -1.58432         0.98783        -5.04903
   S       -2.48881        -0.08459        -3.99674
   C       -0.40865         1.53655        -4.57329
   C        0.45330         2.43317        -5.19436
   S        0.32196         2.98658        -6.83597
   C        1.72752         4.00894        -6.73024
   C        2.24532         3.98718        -5.42225
   C        1.55281         3.07230        -4.56708
   C        1.95339         2.92513        -3.23692
   C        2.95649         3.71490        -2.72780
   N        3.37619         3.46411        -1.37000
   O        2.50205         3.16117        -0.58581
   O        4.55951         3.50703        -1.13606
   C        3.57453         4.69131        -3.54371
   N        4.45345         5.69425        -2.97985
   O        4.22208         6.04867        -1.84868
   O        5.30781         6.14237        -3.70825
   C        3.23745         4.81266        -4.86830
   C        2.15677         4.66106        -7.90159
   C        3.38300         5.20494        -8.13299
   C        3.74431         5.82593        -9.34872
   S        2.64056         6.01654       -10.67999
   C        3.83189         6.80178       -11.66339
   C        5.02917         6.91203       -10.97367
   C        4.98756         6.35811        -9.67533
   S        6.29525         6.41330        -8.48774
   C        7.74960         5.93355        -9.41001
   O        8.79539         5.86876        -8.84178
   C        7.53336         5.68174       -10.88164
   C        7.34795         7.03829       -11.54795
   O        8.23029         7.65175       -12.06618
   O        6.10363         7.55161       -11.53011
   C        3.47756         7.22382       -12.99075
   C        4.25038         7.92227       -13.82171
   H        0.13388         3.92266        -0.68119
   H       -3.49085         3.52202        -4.04756
   H       -0.96856         2.27721         0.73310
   H       -4.66896         1.87856        -2.59035
   H       -4.54202        -1.81708         2.51603
   H       -6.33485        -1.50653         0.18640
   H       -9.12943        -5.31519         1.38077
   H       -9.04682        -3.88452        -0.80393
   H       -6.20077        -2.84356        -1.27134
   H       -8.62469        -3.05694        -3.14406
   H       -8.03908        -2.02468        -5.50881
   H       -6.14322        -0.72710        -6.67747
   H       -4.13652         0.54243        -7.16896
   H       -1.89716         1.78455        -7.05564
   H       -0.13958         1.25122        -3.56504
   H        1.48617         2.20116        -2.58724
   H        3.69567         5.59986        -5.44492
   H        1.44095         4.67370        -8.71567
   H        4.16918         5.14746        -7.39590
   H        6.66279         5.04512       -11.05051
   H        8.43700         5.22149       -11.28413
   H        2.48143         6.92863       -13.29452
   H        5.23790         8.25200       -13.55414
   H        3.89785         8.19048       -14.80206
*
