# ORCA input file
# SCF done       -159.358522101914          0.000236983923
! CAM-B3LYP def2-SVP def2/J RIJCOSX Grid4 TightSCF
%maxcore 5000
%tddft
    Mode sTDDFT
    Ethresh 5.0
    maxcore 5000
end

%pal
  nprocs 6
  end
* xyz 0 1
   C        1.60368       -12.31270         3.06790
   C        2.57492       -12.79042         2.27905
   C        3.15234       -14.10455         2.29206
   C        4.12289       -14.30161         1.37391
   C        4.39920       -13.17073         0.55582
   S        3.35573       -11.82876         1.01414
   C        5.31818       -13.07467        -0.45420
   C        6.21538       -14.07000        -0.92649
   C        7.00425       -13.67641        -1.95601
   C        6.79182       -12.33634        -2.37899
   S        5.52445       -11.59636        -1.37869
   C        7.41222       -11.66810        -3.38489
   N        7.10783       -10.38357        -3.70611
   C        7.68000        -9.60997        -4.69250
   C        8.78160        -9.93127        -5.43243
   S        9.19542        -8.69996        -6.55569
   C        7.86984        -7.73026        -6.04325
   C        7.14131        -8.32204        -5.05266
   N        6.02143        -7.80297        -4.44044
   C        5.50891        -6.54485        -4.62072
   C        4.33712        -6.15743        -4.09349
   C        3.72001        -4.85724        -4.22565
   C        2.43425        -4.67738        -3.69167
   C        1.79226        -3.47031        -3.82560
   C        2.44101        -2.39122        -4.45086
   C        3.71714        -2.54948        -4.97094
   C        4.33941        -3.77660        -4.86527
   C        1.58012        -1.23037        -4.38532
   C        0.39855        -1.59051        -3.71743
   C        0.41273        -3.06203        -3.35908
   C        0.21740        -3.29318        -1.85372
   C        1.23539        -2.52834        -1.01543
   C       -0.70335        -3.73565        -4.19133
   C       -0.75224        -5.25680        -4.13593
   C       -0.59415        -0.66585        -3.51080
   C       -0.43237         0.65037        -3.97092
   C        0.75539         0.99538        -4.62748
   C        1.75792         0.07026        -4.83619
   C       -1.52311         1.57692        -3.77478
   C       -1.60140         2.84545        -4.21219
   C       -2.72265         3.71022        -3.92254
   S       -2.39499         5.27796        -3.47473
   C       -4.07140         3.27922        -3.98451
   C       -4.58118         2.22529        -4.67682
   S       -3.73333         1.06413        -5.68493
   C       -5.27133         0.38465        -6.15028
   C       -6.29841         1.00604        -5.53181
   O       -5.91388         2.02606        -4.70570
   C       -7.69460         0.71141        -5.64975
   C       -8.62074         1.38097        -4.93378
   N       -9.97772         1.25145        -4.94457
   C      -10.72168         0.58697        -5.91209
   C      -10.33322         0.21361        -7.16670
   S      -11.58657        -0.58573        -8.03296
   C      -12.68222        -0.37400        -6.72163
   C      -12.10072         0.26129        -5.67078
   N      -12.70489         0.61298        -4.47086
   C      -12.14871         1.83122        -3.91945
   C      -10.65757         1.59787        -3.70558
   H        1.15702       -12.93389         3.82397
   H        1.24203       -11.30528         2.97484
   H        2.80980       -14.84441         2.99392
   H        4.65908       -15.22585         1.24719
   H        6.24399       -15.04917        -0.48336
   H        7.73840       -14.29906        -2.43634
   H        8.16604       -12.15779        -3.97991
   H        6.41493        -9.94773        -3.11226
   H        9.38726       -10.81167        -5.37888
   H        7.70829        -6.78622        -6.51973
   H        5.45128        -8.43385        -3.89504
   H        6.12759        -5.88480        -5.20494
   H        3.77023        -6.88398        -3.52240
   H        1.96729        -5.49995        -3.16979
   H        4.22096        -1.72243        -5.44932
   H        5.33195        -3.89519        -5.27185
   H        0.30977        -4.35883        -1.63923
   H       -0.79154        -2.97998        -1.57601
   H        2.24742        -2.83288        -1.27330
   H        1.07504        -2.72390         0.04259
   H        1.14694        -1.45767        -1.18575
   H       -0.57430        -3.42789        -5.23259
   H       -1.65999        -3.33534        -3.84714
   H        0.14761        -5.68802        -4.56551
   H       -1.60469        -5.61111        -4.71229
   H       -0.86454        -5.61371        -3.11545
   H       -1.50743        -0.93773        -2.99994
   H        0.89336         2.00678        -4.97652
   H        2.66673         0.35594        -5.34502
   H       -2.36087         1.18181        -3.21142
   H       -0.75956         3.32433        -4.69106
   H       -4.80291         3.93411        -3.52957
   H       -5.31456        -0.43609        -6.83289
   H       -7.93948        -0.09715        -6.31440
   H       -8.26850         2.11813        -4.22214
   H       -9.40495         0.38730        -7.66668
   H      -13.68670        -0.73648        -6.79957
   H      -13.71478         0.58199        -4.50051
   H      -12.62399         2.04033        -2.95966
   H      -12.29589         2.69713        -4.58475
   H      -10.53706         0.78033        -2.98219
   H      -10.19593         2.49863        -3.29249
*
