# ORCA input file
# SCF done       -172.978226766095          0.000876939945
! CAM-B3LYP def2-SVP def2/J RIJCOSX Grid4 TightSCF
%maxcore 5000
%tddft
    Mode sTDDFT
    Ethresh 5.0
    maxcore 5000
end

%pal
  nprocs 6
  end
* xyz 0 1
   C       -1.07283        -0.15105         1.83286
   C       -1.31797         1.15246         1.38453
   C       -1.40252         1.24185         0.01982
   S       -1.70009         2.70958        -0.87527
   C       -1.69091         2.08875        -2.58004
   S       -1.17569        -0.30306        -0.73105
   C       -0.96598        -1.07732         0.82227
   C       -0.73079        -2.48289         0.86263
   C       -0.56537        -3.20163         1.99132
   C       -0.34022        -4.62357         2.08012
   C       -0.24779        -5.45334         0.95080
   C       -0.04195        -6.80163         1.10793
   C        0.03123        -7.36721         2.39520
   C       -0.04711        -6.55883         3.52135
   C       -0.22000        -5.20171         3.35306
   C        0.13176        -8.80088         2.26657
   C        0.12693        -9.12894         0.89836
   C        0.09442        -7.87447         0.05042
   C        1.45584        -7.78868        -0.67981
   C        1.72159        -6.49603        -1.43989
   C       -1.08059        -7.87270        -0.93783
   C       -2.42244        -8.07223        -0.24236
   C        0.17812       -10.43796         0.49708
   C        0.21619       -11.46878         1.45713
   C        0.22789       -11.11980         2.81944
   C        0.18996        -9.80476         3.22649
   C        0.23639       -12.82552         1.00110
   C        0.17793       -13.94994         1.76791
   C        0.18710       -15.24605         1.23032
   C        0.08949       -16.39794         1.97373
   C        0.08030       -17.72646         1.49078
   C       -0.05069       -18.67480         2.46235
   C       -0.15090       -18.14579         3.76583
   S       -0.06817       -16.40437         3.72532
   C       -0.31188       -18.85039         4.95092
   C       -0.38816       -20.24646         5.11542
   C       -0.59724       -20.64445         6.40530
   C       -0.69967       -19.58712         7.33114
   S       -0.46705       -18.05813         6.49798
   C       -0.87582       -19.56144         8.70236
   C       -1.31018       -20.55410         9.59367
   C       -2.04559       -21.73445         9.27461
   C       -2.44530       -22.68236        10.29475
   N       -3.05677       -23.82770         9.92874
   C       -3.37093       -24.01883         8.67431
   C       -3.10989       -23.01102         7.69184
   N       -2.43861       -21.92538         8.01785
   C       -3.53417       -23.16905         6.35424
   N       -3.86177       -23.32061         5.26532
   C       -3.98425       -25.23694         8.28762
   N       -4.47757       -26.20688         7.92894
   C       -2.17789       -22.47963        11.65567
   C       -1.53944       -21.27253        11.99268
   C       -1.11861       -20.32999        10.98664
   N       -0.53909       -19.25925        11.52109
   S       -0.53969       -19.40959        13.12535
   N       -1.26435       -20.84027        13.22474
   C       -2.59432       -23.43134        12.66953
   C       -3.89364       -23.99343        12.69568
   C       -4.12019       -24.77807        13.78582
   S       -5.62085       -25.59201        14.15066
   C       -5.16516       -26.50436        15.65246
   S       -2.72251       -24.85585        14.81403
   C       -1.81912       -23.82165        13.74561
   C       -0.42670       -23.61141        14.03874
   C        0.52405       -23.35887        13.14331
   H       -0.97764        -0.40303         2.87319
   H       -1.43160         2.00549         2.02815
   H       -1.87608         2.94627        -3.21863
   H       -2.47818         1.35027        -2.70168
   H       -0.72068         1.65426        -2.80310
   H       -0.69541        -2.96601        -0.10406
   H       -0.60821        -2.68491         2.94085
   H       -0.35618        -5.02980        -0.03466
   H        0.01713        -6.98568         4.51118
   H       -0.28353        -4.56176         4.22181
   H        1.51309        -8.63002        -1.37445
   H        2.24409        -7.92337         0.06581
   H        0.95608        -6.31065        -2.18884
   H        2.67981        -6.56957        -1.95002
   H        1.76600        -5.64939        -0.76026
   H       -0.92765        -8.66844        -1.67016
   H       -1.09680        -6.92297        -1.47396
   H       -2.44743        -9.02538         0.28130
   H       -3.22929        -8.05849        -0.97164
   H       -2.59896        -7.27978         0.48179
   H        0.17293       -10.69707        -0.55241
   H        0.27064       -11.89818         3.56500
   H        0.20008        -9.55801         4.27768
   H        0.28693       -12.95607        -0.07386
   H        0.10709       -13.87641         2.84446
   H        0.26699       -15.35727         0.15642
   H        0.16710       -17.94085         0.44021
   H       -0.08345       -19.73251         2.27413
   H       -0.28934       -20.92745         4.28959
   H       -0.65107       -21.67214         6.70690
   H       -0.64172       -18.62163         9.18919
   H       -4.63849       -23.80687        11.94511
   H       -4.34683       -27.18309        15.43019
   H       -6.04711       -27.06207        15.95006
   H       -4.88084       -25.80368        16.43237
   H       -0.15987       -23.72924        15.08171
   H        0.31383       -23.28830        12.08960
   H        1.54928       -23.22435        13.44027
*
