# ORCA input file
# SCF done       -225.901187256677          0.000655233687
! CAM-B3LYP def2-SVP def2/J RIJCOSX Grid4 TightSCF
%maxcore 5000
%tddft
    Mode sTDDFT
    Ethresh 5.0
    maxcore 5000
end

%pal
  nprocs 6
  end
* xyz 0 1
   C       -0.10644        -3.51215        -7.04054
   C        0.55619        -2.58330        -7.82643
   C        1.94965        -2.53269        -7.76264
   C        2.64824        -1.59561        -8.56362
   N        3.20555        -0.83803        -9.21642
   C        2.67512        -3.39764        -6.92053
   C        4.08754        -3.31758        -6.87391
   N        5.23041        -3.26675        -6.82322
   C        2.00304        -4.33601        -6.13641
   C        0.62721        -4.37905        -6.21218
   C       -0.29410        -5.29337        -5.49413
   O        0.05139        -6.13824        -4.69898
   C       -1.64746        -4.96558        -5.99897
   C       -1.52766        -3.80976        -6.87784
   C       -2.54869        -3.05798        -7.39449
   C       -2.35786        -1.92555        -8.21645
   N       -2.26829        -1.00172        -8.89099
   C       -3.92659        -3.26158        -7.15774
   N       -5.06198        -3.33711        -7.00433
   C       -2.81239        -5.66792        -5.86234
   C       -3.20400        -6.76224        -5.03253
   C       -4.39663        -7.42838        -5.39647
   C       -4.86897        -8.45283        -4.62283
   C       -4.18306        -8.84022        -3.45515
   C       -3.01219        -8.19207        -3.08167
   C       -2.53039        -7.16599        -3.86602
   C       -4.95349        -9.86904        -2.79673
   C       -6.10924       -10.12798        -3.55668
   C       -6.06947        -9.34489        -4.85004
   C       -7.36352        -8.56653        -5.11589
   C       -7.69924        -7.59438        -3.99058
   C       -5.68925       -10.24375        -6.05514
   C       -6.56266       -11.47137        -6.25323
   C       -7.11412       -10.92152        -3.04687
   C       -6.95558       -11.49513        -1.77954
   C       -5.76046       -11.29719        -1.07582
   C       -4.75945       -10.49026        -1.57095
   C       -8.05975       -12.13268        -1.07237
   S       -8.28687       -11.52106         0.53169
   C       -9.71910       -12.42925         0.80268
   C      -10.03112       -13.18426        -0.32516
   C       -9.06027       -13.04809        -1.38868
   C       -9.24248       -13.88818        -2.52633
   C       -8.25535       -14.00041        -3.64954
   F       -6.98053       -13.76289        -3.31375
   F       -8.25515       -15.22952        -4.19585
   F       -8.55643       -13.16078        -4.66396
   C      -10.37022       -14.65652        -2.64920
   C      -11.37657       -14.65353        -1.66718
   C      -11.20447       -13.94712        -0.51681
   C      -10.41991       -12.32328         2.06377
   C      -11.07659       -13.43073         2.61831
   C      -11.77768       -13.28115         3.79168
   C      -11.84021       -12.02911         4.42899
   C      -11.14327       -10.94248         3.91831
   C      -10.43602       -11.09977         2.74536
   C      -12.73582       -12.12798         5.55865
   C      -13.24707       -13.43865         5.60392
   C      -12.59912       -14.30301         4.54288
   C      -13.63455       -14.99300         3.64170
   C      -14.49898       -13.99872         2.87415
   C      -11.71213       -15.33290         5.28443
   C      -10.76275       -16.14118         4.40993
   C      -14.18265       -13.78713         6.54214
   C      -14.61840       -12.82737         7.47286
   C      -14.04658       -11.54753         7.46139
   C      -13.12870       -11.18466         6.49833
   C      -15.61774       -13.14637         8.45497
   C      -16.65490       -14.01349         8.33228
   C      -17.35103       -14.53393         9.53763
   O      -17.27020       -14.11929        10.66832
   C      -18.11879       -15.71036         9.05839
   C      -18.85177       -16.61677         9.79468
   C      -19.47196       -17.66807         9.11708
   C      -19.33887       -17.78769         7.72011
   C      -18.60391       -16.85856         6.98186
   C      -17.99576       -15.81482         7.65813
   C      -17.21522       -14.67868         7.17131
   C      -17.23675       -14.19243         5.89251
   C      -16.74762       -12.91456         5.54572
   N      -16.43634       -11.85787         5.22547
   C      -17.81052       -14.86985         4.79742
   N      -18.22454       -15.40712         3.87191
   C      -19.95883       -18.87200         7.05061
   N      -20.44868       -19.74605         6.49721
   C      -20.23394       -18.62045         9.83610
   N      -20.84503       -19.38240        10.43370
   H        0.03617        -1.90795        -8.48673
   H        2.54287        -5.01069        -5.48941
   H       -3.60638        -5.35660        -6.53318
   H       -4.92538        -7.11841        -6.28635
   H       -2.48722        -8.47951        -2.18359
   H       -1.63045        -6.65596        -3.57031
   H       -8.18461        -9.27344        -5.24070
   H       -7.25705        -8.01321        -6.05090
   H       -7.82617        -8.12344        -3.04832
   H       -8.62232        -7.06582        -4.21582
   H       -6.90568        -6.86061        -3.86675
   H       -4.65586       -10.57383        -5.91820
   H       -5.72053        -9.62139        -6.95223
   H       -6.43785       -12.15827        -5.42282
   H       -6.26566       -11.98474        -7.16481
   H       -7.61326       -11.21061        -6.33980
   H       -8.03989       -11.05599        -3.58405
   H       -5.63833       -11.77126        -0.11273
   H       -3.85949       -10.32051        -1.00010
   H      -10.49435       -15.28045        -3.52085
   H      -12.27210       -15.23064        -1.83250
   H      -11.96814       -13.93971         0.24387
   H      -11.01356       -14.38853         2.12773
   H      -11.17165        -9.98537         4.41579
   H       -9.90799       -10.25977         2.31787
   H      -14.27170       -15.62659         4.26318
   H      -13.12021       -15.64078         2.93070
   H      -14.96826       -13.28725         3.54939
   H      -15.28126       -14.52340         2.33052
   H      -13.90095       -13.43603         2.16100
   H      -12.37528       -16.01634         5.81984
   H      -11.12285       -14.79308         6.03052
   H      -11.29706       -16.68362         3.63456
   H      -10.23987       -16.86835         5.02719
   H      -10.02048       -15.49803         3.94531
   H      -14.56611       -14.79637         6.59653
   H      -14.37583       -10.82518         8.19313
   H      -12.72456       -10.18448         6.47743
   H      -15.50872       -12.68524         9.43149
   H      -18.94417       -16.51521        10.86532
   H      -18.51927       -16.97844         5.91298
*
