# ORCA input file
# SCF done       -209.752399527880          0.000897993611
! CAM-B3LYP def2-SVP def2/J RIJCOSX Grid4 TightSCF
%maxcore 5000
%tddft
    Mode sTDDFT
    Ethresh 5.0
    maxcore 5000
end

%pal
  nprocs 6
  end
* xyz 0 1
   C       -3.52339         0.39897        -5.00787
   C       -3.53641         1.69534        -5.49570
   C       -2.32918         2.39411        -5.56171
   C       -2.31945         3.71923        -6.06288
   N       -2.31763         4.79003        -6.46822
   C       -1.12017         1.80728        -5.14199
   C        0.08705         2.54228        -5.21427
   N        1.07551         3.11848        -5.26382
   C       -1.11150         0.49873        -4.65667
   C       -2.30915        -0.18094        -4.60170
   C       -2.54673        -1.56963        -4.14251
   O       -1.68324        -2.31559        -3.72709
   C       -3.99057        -1.80695        -4.32159
   C       -4.59514        -0.57694        -4.80358
   C       -5.92753        -0.31056        -4.98682
   C       -6.43051         0.92543        -5.44851
   N       -6.90716         1.90059        -5.82125
   C       -7.00551        -1.18374        -4.72212
   N       -7.95050        -1.80556        -4.52379
   C       -4.69954        -2.97116        -4.14146
   C       -4.32927        -4.22937        -3.63983
   S       -5.60692        -5.45010        -3.58905
   C       -3.14800        -4.72135        -3.11833
   C       -3.23174        -6.04332        -2.65845
   C       -2.21002        -6.82694        -2.04989
   C       -0.84524        -6.20795        -1.91776
   C       -0.74874        -5.35974        -0.64729
   C       -2.51011        -8.08220        -1.57239
   C       -1.48770        -8.95803        -0.89849
   C       -0.85892        -9.92855        -1.90102
   C       -4.53216        -6.57532        -2.84293
   C       -4.81333        -7.85429        -2.40350
   S       -6.32474        -8.70308        -2.51918
   C       -3.82099        -8.60872        -1.74616
   C       -4.32979        -9.85808        -1.32771
   C       -5.64724       -10.06234        -1.65724
   C       -6.47456       -11.17915        -1.35142
   N       -6.10067       -12.14780        -0.44183
   C       -7.12312       -13.03609        -0.32203
   C       -7.54876       -14.17291         0.35891
   C       -8.82825       -14.45799        -0.12861
   N       -9.16828       -13.52812        -1.09135
   C       -8.15238       -12.63492        -1.20905
   C       -7.74714       -11.46476        -1.84769
   C       -9.73487       -15.48645         0.24544
   C       -9.59229       -16.26631         1.34190
   C      -10.51011       -17.27314         1.75581
   S      -10.40670       -17.86398         3.40061
   C      -11.52986       -17.87666         1.06263
   C      -12.26348       -18.81899         1.81742
   C      -13.37526       -19.60915         1.41068
   C      -13.84176       -19.44240        -0.01063
   C      -14.73809       -18.21135        -0.16035
   C      -13.98305       -20.44979         2.31848
   C      -15.20183       -21.27583         2.01129
   C      -16.46753       -20.59478         2.53899
   C      -11.76851       -18.90277         3.13528
   C      -12.38564       -19.73237         4.04886
   S      -11.98996       -19.92996         5.72236
   C      -13.48687       -20.52010         3.65101
   C      -13.95856       -21.30177         4.72305
   C      -13.30497       -21.08046         5.91383
   C      -13.57533       -21.71454         7.14789
   C      -13.26626       -21.27332         8.40115
   C      -13.17798       -22.22256         9.53581
   O      -13.55234       -23.37132         9.56638
   C      -12.47501       -21.47220        10.60726
   C      -12.03860       -21.92670        11.83311
   C      -11.36733       -21.03016        12.66749
   C      -11.14644       -19.70332        12.25080
   C      -11.60368       -19.24909        11.01210
   C      -12.27371       -20.14032        10.19285
   C      -12.89720       -19.96101         8.88242
   C      -13.31847       -18.76343         8.36585
   C      -14.20732       -18.67061         7.27345
   N      -14.98298       -18.56836         6.43351
   C      -13.00643       -17.51046         8.92993
   N      -12.76436       -16.46994         9.34908
   C      -10.44565       -18.81395        13.10239
   N       -9.87660       -18.08903        13.78179
   C      -10.90252       -21.45764        13.93426
   N      -10.53592       -21.82106        14.95652
   H       -4.43972         2.18057        -5.82835
   H       -0.19405         0.03057        -4.33357
   H       -5.74349        -2.92819        -4.42862
   H       -2.26267        -4.11564        -3.07079
   H       -0.65107        -5.57498        -2.78406
   H       -0.07619        -6.97917        -1.90106
   H       -1.48262        -4.55801        -0.66850
   H        0.24163        -4.91901        -0.56542
   H       -0.93360        -5.96699         0.23632
   H       -1.96711        -9.52288        -0.09743
   H       -0.70727        -8.35309        -0.44028
   H       -1.62154       -10.55503        -2.35822
   H       -0.13316       -10.56880        -1.40492
   H       -0.35322        -9.38125        -2.69318
   H       -3.74406       -10.59767        -0.81283
   H       -5.24675       -12.14225         0.08703
   H       -7.01801       -14.73708         1.09808
   H      -10.05189       -13.49918        -1.57025
   H       -8.27308       -10.87906        -2.57466
   H      -10.61073       -15.60167        -0.37977
   H       -8.75322       -16.09763         2.00113
   H      -11.72674       -17.64908         0.03160
   H      -14.38788       -20.32241        -0.34699
   H      -12.97072       -19.33725        -0.66025
   H      -15.63998       -18.32277         0.43543
   H      -15.02656       -18.07963        -1.20073
   H      -14.22078       -17.31565         0.17542
   H      -15.09714       -22.25711         2.47792
   H      -15.30737       -21.43801         0.93989
   H      -16.38554       -20.39712         3.60486
   H      -17.33483       -21.22735         2.36505
   H      -16.62697       -19.64567         2.03401
   H      -14.78677       -21.98429         4.66282
   H      -14.01721       -22.70455         7.09205
   H      -12.21041       -22.94727        12.13987
   H      -11.41704       -18.22783        10.71890
*
