# ORCA input file
# SCF done       -209.114346295177          0.000796643568
! CAM-B3LYP def2-SVP def2/J RIJCOSX Grid4 TightSCF
%maxcore 5000
%tddft
    Mode sTDDFT
    Ethresh 5.0
    maxcore 5000
end

%pal
  nprocs 6
  end
* xyz 0 1
   C       -3.53785        -4.22596        -3.88567
   C       -4.27672        -3.38400        -4.70255
   F       -4.64566        -2.18721        -4.23554
   C       -4.63990        -3.75435        -5.99901
   F       -5.35998        -2.91248        -6.74833
   C       -4.25954        -4.98129        -6.51798
   C       -3.51447        -5.81734        -5.70913
   C       -3.15593        -5.45603        -4.39781
   C       -2.41642        -6.56047        -3.78933
   C       -2.26799        -6.76823        -2.44569
   C       -2.65015        -5.83437        -1.45953
   N       -2.92430        -5.09759        -0.62417
   C       -1.79971        -7.97505        -1.88352
   N       -1.50017        -8.95287        -1.36342
   C       -2.12177        -7.51014        -4.84739
   C       -2.95985        -7.15416        -6.02450
   O       -3.11137        -7.80019        -7.03312
   C       -1.21742        -8.51591        -4.93718
   C       -0.09842        -8.78733        -4.07568
   C        0.31905       -10.11459        -3.89061
   C        1.36146       -10.37750        -3.03827
   C        2.04692        -9.32661        -2.40178
   C        1.68249        -8.00612        -2.62954
   C        0.60615        -7.74775        -3.45041
   C        3.07985        -9.89240        -1.56381
   C        3.02883       -11.29245        -1.67758
   C        1.93917       -11.71243        -2.63369
   C        0.88355       -12.58730        -1.93056
   C        0.27843       -11.91863        -0.70229
   C        2.51564       -12.46974        -3.84504
   C        3.56988       -11.66818        -4.59916
   C        3.88631       -12.08216        -0.95305
   C        4.81392       -11.48594        -0.08766
   C        4.86928       -10.08836        -0.00022
   C        4.01196        -9.29094        -0.73009
   C        5.67465       -12.31270         0.72589
   S        5.69532       -14.04547         0.53014
   C        6.82376       -14.25887         1.83012
   C        7.16806       -13.02386         2.36912
   C        6.51837       -11.94021         1.73892
   C        8.06446       -12.80958         3.42802
   N        8.78600       -12.57024         4.28885
   C        7.20987       -15.58086         2.19611
   C        7.93545       -15.89616         3.28785
   C        8.28704       -17.22545         3.72456
   C        8.75258       -17.38050         5.03999
   C        9.05513       -18.63297         5.51310
   C        8.92554       -19.75874         4.68191
   C        8.48803       -19.61653         3.37099
   C        8.16794       -18.35813         2.90648
   C        9.32201       -20.92882         5.43047
   C        9.68641       -20.52725         6.73139
   C        9.50029       -19.03728         6.90173
   C       10.80505       -18.33873         7.31770
   C       11.89682       -18.46316         6.26090
   C        8.33735       -18.70104         7.86541
   C        8.50913       -19.16005         9.30745
   C       10.15981       -21.44851         7.62955
   C       10.23625       -22.80398         7.26257
   C        9.81460       -23.19373         5.98259
   C        9.38468       -22.26570         5.05889
   C       10.66599       -23.80899         8.19264
   C       11.46326       -23.68931         9.28548
   C       11.41922       -24.73431        10.34377
   O       10.92803       -25.83448        10.26346
   C       12.05072       -24.10649        11.52829
   C       12.56316       -22.84533        11.17484
   C       13.17625       -22.04972        12.12964
   C       13.26242       -22.53993        13.42381
   C       12.76157       -23.79750        13.76546
   C       12.14758       -24.59784        12.81552
   F       12.87272       -24.23192        15.02589
   F       13.83610       -21.78481        14.36625
   C       12.34474       -22.63337         9.74505
   C       13.04348       -21.76140         8.95531
   C       12.99793       -21.78783         7.54537
   N       13.03946       -21.80061         6.39894
   C       13.93008       -20.78420         9.45223
   N       14.63439       -19.95365         9.81384
   H       -3.27790        -3.89718        -2.89253
   H       -4.53876        -5.26787        -7.51935
   H       -1.32979        -9.16163        -5.80289
   H       -0.21805       -10.91163        -4.38292
   H        2.22411        -7.19547        -2.16638
   H        0.31873        -6.72522        -3.65041
   H        1.35406       -13.52922        -1.63945
   H        0.09104       -12.81762        -2.64527
   H        1.04770       -11.69883         0.03493
   H       -0.45413       -12.57957        -0.24525
   H       -0.21815       -10.98978        -0.96929
   H        1.69668       -12.72018        -4.52223
   H        2.95576       -13.40495        -3.49316
   H        3.15068       -10.73805        -4.97672
   H        3.94379       -12.24376        -5.44260
   H        4.40817       -11.42706        -3.94920
   H        3.84472       -13.15956        -1.02757
   H        5.59332        -9.62447         0.65058
   H        4.06418        -8.21623        -0.64438
   H        6.67480       -10.92411         2.05346
   H        6.83179       -16.35829         1.54602
   H        8.25714       -15.09860         3.94336
   H        8.85644       -16.50785         5.66833
   H        8.39821       -20.47682         2.72495
   H        7.83497       -18.24332         1.88657
   H       11.16264       -18.77525         8.25192
   H       10.59650       -17.28267         7.50060
   H       12.09939       -19.50705         6.03101
   H       12.81623       -18.00851         6.62221
   H       11.60325       -17.96129         5.34194
   H        7.42499       -19.14790         7.46092
   H        8.20557       -17.61705         7.85308
   H        8.51187       -20.24469         9.37556
   H        7.67627       -18.79043         9.90186
   H        9.42776       -18.77255         9.73994
   H       10.44321       -21.15334         8.62793
   H        9.86916       -24.23815         5.71336
   H        9.09829       -22.57402         4.06505
   H       10.23399       -24.79618         8.05614
   H       13.57502       -21.07222        11.91141
   H       11.76026       -25.56916        13.07873
*
