# ORCA input file
# SCF done       -186.649809845768          0.000627870686
! CAM-B3LYP def2-SVP def2/J RIJCOSX Grid4 TightSCF
%maxcore 5000
%tddft
    Mode sTDDFT
    Ethresh 5.0
    maxcore 5000
end

%pal
  nprocs 6
  end
* xyz 0 1
   C       -2.51142        11.70684         8.70206
   C       -2.48315        12.94459         9.19301
   C       -1.86854        13.31088        10.43542
   O       -1.25176        12.39073        11.21890
   C       -0.77252        13.01850        12.32312
   C       -1.08622        14.36790        12.24641
   C       -1.78840        14.55536        11.03633
   O       -2.28486        15.71990        10.55752
   O       -0.80951        15.37769        13.11975
   C       -0.07735        12.29866        13.33352
   C        0.17731        10.97125        13.26767
   C        0.85326        10.21518        14.26253
   S        1.12914         8.51501        14.00182
   C        1.91274         8.34755        15.54418
   C        1.94815         9.56028        16.20433
   C        1.35900        10.60031        15.48900
   C        2.40651         7.09365        15.99542
   C        2.96655         6.79176        17.22009
   C        3.33039         5.45232        17.34962
   C        3.06353         4.69828        16.22692
   S        2.34172         5.67960        14.98179
   C        3.29916         3.31464        16.02153
   S        3.91506         2.30611        17.29728
   C        3.88753         0.89772        16.26722
   C        3.42395         1.23215        15.00803
   C        3.09309         2.57708        14.87249
   C        4.29177        -0.35583        16.78971
   C        4.35882        -1.51068        16.08078
   C        4.73106        -2.74292        16.66291
   S        4.82170        -4.20841        15.63667
   C        5.25724        -5.08212        17.04441
   C        5.30191        -4.22720        18.15315
   N        5.01338        -2.95337        17.91996
   C        5.66574        -4.98380        19.39203
   C        5.81855        -6.37425        18.84728
   C        5.57635        -6.38832        17.47085
   S        5.74129        -7.95633        16.79697
   C        6.13082        -8.61344        18.37957
   C        6.12829        -7.62893        19.35600
   C        6.38490       -10.00494        18.48410
   C        6.62159       -10.67109        19.64037
   C        6.86792       -12.06647        19.73104
   S        7.06094       -12.80353        21.29974
   C        7.29246       -14.37541        20.59575
   C        7.22523       -14.30364        19.21736
   C        6.98706       -13.01889        18.73688
   C        7.50750       -15.52640        21.39993
   C        7.74102       -16.82170        20.98361
   C        7.90051       -17.72362        22.03390
   C        7.79126       -17.14220        23.28130
   S        7.48909       -15.43494        23.13778
   C        7.88531       -17.77155        24.55134
   S        7.66639       -16.87747        26.02597
   C        7.90329       -18.30676        26.99568
   C        8.14339       -19.40006        26.18497
   C        8.13354       -19.10308        24.82463
   C        7.81978       -18.21264        28.41000
   C        7.94799       -19.24724        29.27687
   C        7.83266       -19.09662        30.68253
   C        7.93583       -20.12898        31.55372
   C        7.80514       -19.99985        32.96154
   O        7.91274       -21.10744        33.74144
   C        7.74390       -20.74364        35.03796
   C        7.52502       -19.37885        35.09703
   C        7.56288       -18.89684        33.77128
   O        7.39496       -17.61127        33.38256
   O        7.30431       -18.57433        36.17647
   C        7.80274       -21.71336        36.09316
   C        8.01848       -23.01568        35.91175
   H       -2.98918        11.48338         7.76524
   H       -2.05878        10.88683         9.23206
   H       -2.93781        13.77381         8.67057
   H       -2.07448        16.41401        11.19508
   H       -0.32359        15.02577        13.87257
   H        0.24955        12.87524        14.18814
   H       -0.15744        10.42956        12.39458
   H        2.39146         9.68309        17.17593
   H        1.29932        11.60775        15.85953
   H        3.10067         7.52135        17.99773
   H        3.77757         5.03024        18.23239
   H        3.32220         0.51549        14.21357
   H        2.71189         3.01936        13.96858
   H        4.56078        -0.38818        17.83608
   H        4.12151        -1.53322        15.02754
   H        4.88012        -4.91924        20.14715
   H        6.58846        -4.60977        19.83917
   H        6.34773        -7.82944        20.38853
   H        6.36895       -10.55207        17.55195
   H        6.61728       -10.13257        20.57743
   H        7.34243       -15.16333        18.58275
   H        6.90718       -12.78736        17.69029
   H        7.79442       -17.10264        19.94752
   H        8.08718       -18.77248        21.89182
   H        8.32076       -20.38713        26.57168
   H        8.30192       -19.83452        24.05490
   H        7.62676       -17.22430        28.80655
   H        8.13796       -20.24328        28.90090
   H        7.64500       -18.10483        31.06682
   H        8.12315       -21.13288        31.19789
   H        7.24278       -17.08336        34.17758
   H        7.31524       -19.10512        36.97941
   H        7.65602       -21.31745        37.09090
   H        8.16628       -23.41922        34.92589
   H        8.05323       -23.70177        36.73857
*
