# ORCA input file
# SCF done       -198.267568149669          0.000349941839
! CAM-B3LYP def2-SVP def2/J RIJCOSX Grid4 TightSCF
%maxcore 5000
%tddft
    Mode sTDDFT
    Ethresh 5.0
    maxcore 5000
end

%pal
  nprocs 6
  end
* xyz 0 1
   C        1.08571         0.61186         1.20337
   S        0.81983        -0.91720         1.93625
   C        0.01132        -1.52392         0.52010
   C       -0.03196        -0.55935        -0.46435
   C        0.59270         0.66811        -0.06433
   O        0.66347         1.73499        -0.91375
   C        1.29199         2.89188        -0.42056
   O       -0.61244        -0.81501        -1.67085
   C       -1.14788         0.26610        -2.40414
   C       -0.49967        -2.87892         0.50636
   C       -0.81683        -3.51772        -0.69945
   C       -1.31613        -4.79715        -0.66944
   C       -1.50595        -5.47339         0.54592
   C       -1.17860        -4.85420         1.74242
   C       -0.67932        -3.56719         1.71153
   C       -2.04690        -6.78877         0.26188
   C       -2.18009        -6.92328        -1.12934
   C       -1.72985        -5.66564        -1.83423
   C       -0.54703        -5.94131        -2.77996
   C        0.64086        -6.57679        -2.06777
   C       -2.88298        -5.02240        -2.62642
   C       -4.09797        -4.71937        -1.75809
   C       -2.66974        -8.08433        -1.67786
   C       -3.05396        -9.13379        -0.83771
   C       -2.92641        -8.98633         0.54381
   C       -2.42057        -7.82607         1.10141
   C       -3.59799       -10.36871        -1.41512
   C       -4.69616       -10.97489        -0.87230
   C       -5.23357       -12.13910        -1.47175
   C       -6.33533       -12.90872        -1.14587
   C       -7.25395       -12.69432         0.01372
   C       -8.69168       -12.39364        -0.44355
   N       -9.39620       -11.67517         0.60338
   C       -7.19068       -13.88795         0.98228
   N       -7.87737       -13.58589         2.23137
   C       -6.41808       -13.95996        -2.13383
   C       -7.30540       -14.95301        -2.32661
   C       -7.16517       -15.93630        -3.43701
   C       -5.99449       -15.69981        -4.33730
   C       -5.12303       -14.69256        -4.14603
   C       -5.29142       -13.79266        -3.06812
   C       -4.58495       -12.68119        -2.65892
   C       -3.43488       -12.04290        -3.17897
   C       -2.96745       -10.92094        -2.57693
   C       -7.05641       -17.31622        -2.83051
   C       -7.89247       -18.31403        -3.10593
   C       -7.83840       -19.66446        -2.56728
   C       -8.58267       -20.66458        -3.20691
   C       -8.55672       -21.95318        -2.72834
   C       -7.83158       -22.25684        -1.56337
   C       -7.09459       -21.27498        -0.91917
   C       -7.09365       -19.99221        -1.43148
   C       -8.06641       -23.64466        -1.22067
   C       -8.93125       -24.19848        -2.17625
   C       -9.25310       -23.18698        -3.25663
   C       -8.59411       -23.70136        -4.55816
   C       -8.63708       -22.74947        -5.74636
   C      -10.76413       -22.98086        -3.42908
   C      -11.44684       -22.59498        -2.12187
   C       -9.35136       -25.50329        -2.08007
   C       -8.90696       -26.28828        -1.00812
   C       -8.04758       -25.72317        -0.05836
   C       -7.62385       -24.41337        -0.15456
   C       -9.32796       -27.66627        -0.86421
   S       -9.12226       -28.47525         0.66293
   C       -9.80956       -29.92522         0.05628
   C      -10.18929       -29.81058        -1.24616
   C       -9.91085       -28.51118        -1.78575
   O      -10.17432       -28.08724        -3.05351
   C      -10.27351       -29.04835        -4.08298
   O      -10.78407       -30.77961        -2.00224
   C      -11.00755       -32.01870        -1.37603
   H        1.60210         1.36736         1.75829
   H        1.24244         3.62309        -1.22566
   H        2.33888         2.69801        -0.16588
   H        0.77320         3.28204         0.46099
   H       -1.74008        -0.18972        -3.19727
   H       -0.36243         0.88571        -2.84161
   H       -1.79372         0.89036        -1.78137
   H       -0.66117        -3.00315        -1.63217
   H       -1.31249        -5.36428         2.68484
   H       -0.42401        -3.07011         2.63675
   H       -0.23531        -4.99792        -3.23327
   H       -0.88619        -6.60213        -3.58111
   H        1.00675        -5.92398        -1.27843
   H        1.45061        -6.75387        -2.77240
   H        0.35709        -7.52747        -1.62144
   H       -3.17407        -5.69825        -3.43383
   H       -2.52017        -4.09617        -3.07723
   H       -4.48784        -5.63163        -1.31186
   H       -4.88429        -4.26588        -2.35774
   H       -3.83338        -4.03160        -0.95803
   H       -2.78782        -8.18448        -2.74734
   H       -3.21074        -9.80811         1.18530
   H       -2.31960        -7.73286         2.17282
   H       -5.18180       -10.54426        -0.00856
   H       -6.91673       -11.80698         0.55883
   H       -9.18770       -13.33402        -0.73563
   H       -8.65406       -11.74837        -1.32816
   H       -9.37695       -12.23881         1.44943
   H      -10.36449       -11.52712         0.33908
   H       -6.12901       -14.15190         1.13101
   H       -7.68590       -14.75594         0.53915
   H       -7.41437       -12.81216         2.69868
   H       -7.84251       -14.38751         2.85272
   H       -8.15399       -15.10507        -1.67462
   H       -8.08620       -15.90930        -4.03795
   H       -5.87840       -16.40065        -5.15041
   H       -4.28737       -14.55285        -4.81737
   H       -2.94488       -12.45337        -4.05036
   H       -2.08328       -10.42796        -2.95482
   H       -6.21955       -17.44296        -2.15973
   H       -8.69434       -18.14146        -3.81562
   H       -9.17747       -20.40403        -4.07054
   H       -6.53746       -21.50560        -0.02315
   H       -6.53086       -19.22238        -0.92594
   H       -9.08677       -24.63789        -4.82914
   H       -7.54943       -23.93253        -4.33337
   H       -9.65867       -22.48635        -6.00812
   H       -8.18185       -23.23020        -6.61000
   H       -8.08003       -21.84090        -5.53438
   H      -11.20361       -23.90525        -3.80960
   H      -10.93851       -22.19603        -4.16666
   H      -11.31732       -23.37677        -1.37693
   H      -12.51214       -22.44486        -2.28339
   H      -11.02394       -21.67346        -1.72732
   H      -10.02615       -25.92583        -2.80446
   H       -7.71122       -26.33420         0.76715
   H       -6.96096       -23.99830         0.58995
   H       -9.89769       -30.76789         0.71013
   H      -10.27014       -28.47685        -5.01089
   H      -11.19829       -29.62403        -4.00970
   H       -9.42179       -29.73290        -4.07447
   H      -11.47638       -32.65094        -2.12804
   H      -11.67679       -31.91487        -0.51606
   H      -10.06777       -32.47457        -1.04835
*
