# ORCA input file
# SCF done       -219.191254481868          0.000500101040
! CAM-B3LYP def2-SVP def2/J RIJCOSX Grid4 TightSCF
%maxcore 5000
%tddft
    Mode sTDDFT
    Ethresh 5.0
    maxcore 5000
end

%pal
  nprocs 6
  end
* xyz 0 1
   C      -13.17960        -5.83199         5.95645
   C      -14.07545        -5.79040         4.89807
   C      -13.64065        -5.90385         3.58543
   C      -12.29348        -6.05421         3.29172
   C      -11.39105        -6.09879         4.34043
   C      -11.83142        -5.99288         5.67923
   C      -10.67762        -6.09398         6.56587
   C      -10.69259        -5.92133         7.92530
   C      -11.84908        -5.61102         8.67095
   N      -12.74805        -5.35882         9.33890
   C       -9.56428        -5.98531         8.76871
   N       -8.69186        -6.01981         9.51515
   C       -9.53455        -6.42448         5.72660
   C       -9.94082        -6.20587         4.34625
   C       -9.11081        -5.85763         3.31325
   C       -7.72783        -5.63095         3.47606
   N       -6.61383        -5.37865         3.59050
   C       -9.55522        -5.58505         2.00468
   N       -9.86201        -5.37502         0.91853
   C       -8.36164        -6.96164         6.18909
   C       -7.40296        -7.72659         5.49822
   S       -7.68072        -8.53827         3.97448
   C       -6.10915        -9.26865         4.01601
   C       -5.42122        -8.89995         5.16412
   C       -6.14765        -8.06176         5.99196
   C       -5.66545       -10.11878         2.97623
   C       -4.46604       -10.80580         2.89669
   C       -4.33523       -11.55600         1.73542
   C       -5.42853       -11.46415         0.89223
   S       -6.64396       -10.41898         1.56542
   C       -5.61268       -12.10317        -0.35705
   S       -4.40528       -13.18064        -0.99528
   C       -5.36192       -13.49289        -2.41937
   C       -6.54876       -12.77991        -2.36982
   C       -6.68698       -12.00754        -1.22292
   C       -4.86191       -14.39268        -3.39193
   C       -5.48195       -14.69072        -4.56497
   C       -5.03609       -15.59843        -5.55197
   S       -5.72239       -15.46290        -7.13925
   C       -4.75997       -16.74906        -7.79401
   C       -3.90122       -17.26101        -6.80415
   C       -4.08602       -16.63670        -5.52870
   C       -3.38223       -17.14167        -4.42029
   C       -2.45762       -18.13226        -4.59507
   S       -1.55677       -18.75406        -3.17999
   C       -2.14699       -18.63555        -5.88563
   O       -1.15246       -19.53259        -6.06728
   C       -2.88630       -18.22077        -6.96471
   C       -4.95539       -17.10440        -9.14868
   C       -4.61865       -18.28813        -9.72572
   C       -4.78346       -18.59299       -11.09936
   S       -4.41510       -20.20415       -11.65612
   C       -4.78399       -19.77545       -13.30106
   C       -5.17310       -18.45145       -13.38433
   C       -5.17638       -17.79370       -12.15965
   C       -4.65497       -20.72068       -14.34763
   C       -4.33848       -22.06245       -14.24529
   C       -4.27503       -22.71267       -15.47231
   C       -4.53403       -21.88356       -16.54922
   S       -4.87650       -20.26222       -16.01070
   C       -4.52083       -22.21809       -17.92566
   S       -4.74290       -21.02060       -19.15852
   C       -4.55504       -22.20943       -20.42295
   C       -4.33983       -23.46636       -19.87398
   C       -4.31979       -23.47173       -18.48908
   C       -4.64974       -21.81107       -21.77030
   C       -4.44961       -22.62790       -22.84507
   C       -4.49218       -22.23184       -24.19794
   C       -5.10666       -21.14571       -24.77210
   C       -4.71738       -20.58418       -26.05954
   C       -3.94124       -21.16621       -27.02803
   C       -3.39167       -22.46453       -26.98447
   N       -2.91104       -23.50669       -27.03680
   C       -3.61117       -20.54854       -28.25295
   N       -3.30085       -20.11026       -29.26769
   C       -5.30735       -19.25312       -26.13646
   C       -6.15403       -19.06632       -25.02144
   C       -6.82250       -17.86801       -24.83460
   C       -6.64553       -16.85843       -25.76890
   C       -5.82295       -17.04333       -26.87048
   C       -5.14634       -18.23825       -27.06628
   C       -6.15780       -20.29273       -24.23663
   C       -7.14426       -20.65586       -23.35627
   C       -8.19739       -19.80681       -22.96021
   N       -9.06814       -19.15889       -22.58573
   C       -7.28108       -21.93990       -22.79194
   N       -7.47318       -22.97228       -22.32812
   H      -13.53734        -5.74489         6.96911
   H      -15.12828        -5.67048         5.10334
   H      -14.35863        -5.87546         2.78004
   H      -11.96425        -6.14688         2.26930
   H       -8.16143        -6.87608         7.24969
   H       -4.42436        -9.23733         5.37946
   H       -5.78128        -7.67108         6.92467
   H       -3.71481       -10.75946         3.66342
   H       -3.47477       -12.15529         1.49583
   H       -7.29142       -12.82473        -3.14520
   H       -7.53993       -11.38729        -1.00938
   H       -3.90158       -14.82815        -3.16354
   H       -6.38750       -14.15447        -4.81747
   H       -3.58310       -16.78220        -3.42577
   H       -1.83325       -20.04444        -3.39910
   H       -0.63357       -19.60418        -5.24952
   H       -2.63532       -18.61540        -7.93346
   H       -5.47208       -16.36547        -9.74731
   H       -4.22234       -19.08688        -9.11770
   H       -5.44339       -17.99252       -14.31928
   H       -5.44620       -16.75989       -12.04438
   H       -4.16195       -22.54006       -13.29782
   H       -4.03939       -23.75534       -15.58093
   H       -4.21151       -24.34929       -20.47250
   H       -4.17007       -24.35649       -17.89791
   H       -4.85376       -20.76042       -21.93508
   H       -4.13242       -23.64509       -22.66555
   H       -3.89429       -22.84615       -24.85864
   H       -7.45766       -17.70954       -23.97826
   H       -7.15468       -15.91650       -25.63320
   H       -5.70130       -16.24504       -27.58663
   H       -4.50670       -18.35997       -27.92460
*
