# ORCA input file
# SCF done       -207.548382063372          0.000744335853
! CAM-B3LYP def2-SVP def2/J RIJCOSX Grid4 TightSCF
%maxcore 5000
%tddft
    Mode sTDDFT
    Ethresh 5.0
    maxcore 5000
end

%pal
  nprocs 6
  end
* xyz 0 1
   C       -5.45620         3.03361        -6.02501
   C       -5.00326         3.25359        -7.31746
   C       -5.11362         2.27268        -8.29355
   C       -5.68938         1.04329        -8.00814
   C       -6.14763         0.81348        -6.72193
   C       -6.02671         1.80676        -5.72214
   C       -6.56274         1.28718        -4.47077
   C       -6.75231         1.99039        -3.31447
   C       -6.43759         3.35996        -3.16531
   N       -6.20720         4.46807        -2.97938
   C       -7.32373         1.47750        -2.12793
   N       -7.77958         1.13807        -1.13174
   C       -6.84650        -0.12920        -4.69692
   C       -6.81201        -0.34282        -6.14182
   C       -7.51207        -1.29618        -6.82543
   C       -8.37737        -2.22458        -6.20500
   N       -9.12464        -2.95086        -5.72550
   C       -7.53760        -1.38547        -8.23459
   N       -7.59149        -1.49204        -9.37485
   C       -6.97348        -1.07276        -3.71573
   C       -6.79694        -2.46301        -3.87347
   C       -7.06722        -3.48519        -2.98458
   C       -6.65148        -4.70143        -3.58171
   C       -6.07958        -4.37677        -4.87794
   O       -5.57624        -5.03643        -5.73565
   O       -6.19923        -2.98836        -4.98602
   C       -6.93285        -5.72807        -2.69541
   O       -7.50758        -5.20367        -1.57447
   C       -7.62738        -3.81906        -1.67728
   O       -8.09292        -3.15202        -0.80561
   C       -6.67398        -7.10406        -2.82143
   C       -6.94775        -7.98970        -1.81847
   C       -6.67474        -9.38087        -1.80227
   C       -6.10729       -10.14116        -2.86608
   C       -5.82490       -11.54607        -2.72762
   N       -5.39145       -12.25069        -3.78130
   C       -5.14618       -11.64030        -4.91019
   C       -5.32386       -10.22154        -5.02172
   N       -5.81806        -9.53120        -4.02512
   C       -4.98608        -9.56171        -6.23211
   N       -4.69456        -9.07821        -7.22767
   C       -4.71796       -12.39533        -6.03354
   N       -4.36715       -12.96420        -6.96251
   C       -6.04842       -12.24062        -1.50961
   C       -6.59093       -11.49068        -0.44929
   C       -6.92727       -10.09668        -0.60765
   N       -7.41971        -9.58576         0.52341
   S       -7.43307       -10.72190         1.65205
   N       -6.80538       -11.91344         0.79576
   C       -5.75088       -13.61995        -1.35033
   C       -6.28966       -14.55500        -0.48362
   C       -5.61749       -15.78120        -0.73591
   C       -4.65012       -15.54654        -1.79372
   O       -3.85599       -16.26606        -2.32689
   O       -4.79987       -14.20635        -2.12501
   C       -6.17886       -16.75219         0.06783
   O       -7.17712       -16.20129         0.80692
   C       -7.32982       -14.84642         0.49944
   O       -8.19736       -14.18930         0.99090
   C       -5.84586       -18.12007         0.12931
   C       -6.49864       -19.03282         0.89702
   C       -6.15863       -20.41009         0.97981
   C       -5.55165       -21.18779         0.03947
   C       -4.87832       -22.45706         0.33077
   C       -5.06508       -23.25980         1.42051
   C       -5.99761       -23.03317         2.45730
   N       -6.73271       -22.91929         3.33109
   C       -4.37217       -24.47330         1.63234
   N       -3.84874       -25.46696         1.86496
   C       -3.96852       -22.70914        -0.77715
   C       -4.21838       -21.76314        -1.79803
   C       -3.46627       -21.76020        -2.96135
   C       -2.47048       -22.71458        -3.10462
   C       -2.23215       -23.65376        -2.10996
   C       -2.97344       -23.66145        -0.93795
   C       -5.32283       -20.91407        -1.38165
   C       -6.14063       -20.21373        -2.22171
   C       -5.94071       -20.13397        -3.61880
   N       -5.83553       -20.04546        -4.75692
   C       -7.33193       -19.56665        -1.82905
   N       -8.32800       -19.05460        -1.58124
   H       -5.35466         3.80446        -5.27902
   H       -4.55319         4.20300        -7.56343
   H       -4.74512         2.46595        -9.28914
   H       -5.76174         0.28428        -8.77007
   H       -7.14244        -0.76346        -2.69328
   H       -6.22229        -7.42040        -3.74946
   H       -7.39503        -7.61120        -0.90729
   H       -5.00427       -18.40020        -0.48985
   H       -7.27515       -18.67883         1.56203
   H       -6.36352       -20.86544         1.94050
   H       -3.63348       -21.02645        -3.73295
   H       -1.87140       -22.72297        -4.00195
   H       -1.45265       -24.38762        -2.24510
   H       -2.76590       -24.39060        -0.17223
*
