# ORCA input file
# SCF done       -177.636096100235          0.000695813813
! CAM-B3LYP def2-SVP def2/J RIJCOSX Grid4 TightSCF
%maxcore 5000
%tddft
    Mode sTDDFT
    Ethresh 5.0
    maxcore 5000
end

%pal
  nprocs 6
  end
* xyz 0 1
   C       -1.84576        -6.89805         7.16952
   C       -0.99046        -5.81389         7.04366
   C       -1.26397        -4.78378         6.15390
   C       -2.40787        -4.80243         5.37052
   C       -3.27278        -5.87715         5.49173
   C       -2.99029        -6.93416         6.38743
   C       -4.04057        -7.93586         6.28349
   C       -4.19499        -9.03168         7.08481
   C       -3.33259        -9.35221         8.15769
   N       -2.67463        -9.67303         9.04081
   C       -5.24365        -9.97432         6.99857
   N       -6.06631       -10.77454         6.99679
   C       -4.88321        -7.53953         5.15199
   C       -4.53239        -6.15815         4.82547
   C       -5.33912        -5.23604         4.22177
   C       -6.64961        -5.48253         3.76273
   N       -7.73071        -5.59630         3.39400
   C       -4.97089        -3.88842         4.01396
   N       -4.73086        -2.78685         3.80296
   C       -5.73019        -8.38016         4.49922
   C       -6.30162        -8.23533         3.20770
   S       -7.84638        -8.99279         2.89296
   C       -7.86078        -8.47310         1.16305
   O       -8.79098        -8.72894         0.43114
   C       -6.62593        -7.78728         0.90883
   C       -5.78949        -7.66448         2.05456
   C       -4.50974        -7.05756         1.79622
   O       -3.57718        -6.83648         2.52291
   S       -4.47911        -6.61226         0.03473
   C       -6.08232        -7.25780        -0.25953
   C       -6.61403        -7.19856        -1.55945
   N       -7.86519        -7.66640        -1.88985
   C       -8.04437        -7.48319        -3.21583
   C       -8.93544        -7.68125        -4.25832
   C       -8.29336        -7.19838        -5.41561
   N       -7.04648        -6.70905        -5.08087
   C       -6.86223        -6.86922        -3.74811
   C       -5.96983        -6.68720        -2.71050
   C       -8.71425        -7.19752        -6.76033
   C       -9.92518        -7.64907        -7.19931
   C      -10.33845        -7.71733        -8.54333
   S      -11.97133        -8.29189        -8.82927
   C      -11.82574        -8.15587       -10.64172
   O      -12.71734        -8.42140       -11.39111
   C      -10.47988        -7.69728       -10.89716
   C       -9.68669        -7.44298        -9.74990
   C       -8.36469        -6.97217       -10.06804
   O       -7.42406        -6.66608        -9.38290
   S       -8.24038        -6.88571       -11.88612
   C       -9.88977        -7.43915       -12.11925
   C      -10.46117        -7.72140       -13.38148
   C      -10.13265        -7.16272       -14.58218
   C      -10.37497        -7.76544       -15.89079
   C      -11.15300        -8.85515       -16.16708
   C      -11.87438        -9.62412       -15.22624
   N      -12.46448       -10.32645       -14.53702
   C      -11.34755        -9.37566       -17.46616
   N      -11.55681        -9.84455       -18.49218
   C       -9.57017        -7.01912       -16.84948
   C       -8.95013        -5.93430       -16.18722
   C       -8.09012        -5.08737       -16.86642
   C       -7.85698        -5.32303       -18.21292
   C       -8.47546        -6.37790       -18.86966
   C       -9.33478        -7.23512       -18.19875
   C       -9.41228        -5.91419       -14.80981
   C       -9.42513        -4.82348       -13.98410
   C       -8.78091        -3.60488       -14.28734
   N       -8.26685        -2.59756       -14.47930
   C      -10.16717        -4.74697       -12.78537
   N      -10.79897        -4.61802       -11.83594
   H       -1.61078        -7.69390         7.85689
   H       -0.09423        -5.77703         7.64376
   H       -0.57565        -3.95723         6.06631
   H       -2.60342        -4.00581         4.67185
   H       -5.99064        -9.31105         4.98742
   H       -8.49805        -8.09651        -1.21526
   H       -9.91128        -8.11901        -4.21630
   H       -6.40016        -6.31196        -5.74260
   H       -4.98713        -6.26121        -2.72702
   H       -8.00145        -6.82279        -7.48141
   H      -10.65366        -7.99687        -6.47997
   H      -11.19817        -8.51622       -13.36300
   H       -7.59916        -4.27052       -16.36283
   H       -7.18440        -4.67638       -18.75513
   H       -8.28281        -6.54009       -19.91902
   H       -9.80030        -8.05152       -18.72552
*
