# ORCA input file
# SCF done       -183.334033671029          0.003704872471
! CAM-B3LYP def2-SVP def2/J RIJCOSX Grid4 TightSCF
%maxcore 5000
%tddft
    Mode sTDDFT
    Ethresh 5.0
    maxcore 5000
end

%pal
  nprocs 6
  end
* xyz 0 1
   C       -7.84037        -2.74319         0.00080
   C       -7.09324        -3.26356        -1.02460
   C       -6.98044        -4.64258        -1.30095
   N       -6.85901        -5.74972        -1.58161
   C       -6.31872        -2.50723        -1.92854
   N       -5.65508        -1.95924        -2.68908
   C       -8.56109        -3.51974         1.00313
   C       -9.12696        -2.62955         1.94672
   C       -9.81106        -3.05743         3.05764
   C       -9.94311        -4.43566         3.24837
   C       -9.39956        -5.32035         2.28656
   C       -8.70896        -4.88559         1.16243
   S       -9.68130        -6.98177         2.72618
   C      -10.50019        -6.46549         4.17679
   C      -10.56672        -5.12161         4.32542
  Br      -11.20982        -7.73927         5.34972
   C       -8.82096        -1.24348         1.55953
   O       -9.27148        -0.23816         2.06868
   C       -7.95024        -1.34065         0.36114
   C       -7.45839        -0.26810        -0.33478
   C       -7.27683         1.03833         0.17634
   S       -7.34667         2.41053        -0.89159
   C       -7.04248         3.47806         0.41304
   C       -6.86628         2.84801         1.60983
   C       -6.55357         3.56244         2.88069
   C       -6.98163         1.43644         1.48699
   C       -6.74891         0.44405         2.49192
   C       -7.09765         0.44902         3.79742
   C       -7.06517        -0.79072         4.49398
   C       -7.68695        -1.07029         5.66380
   C       -7.81249        -2.41672         6.10267
   O       -8.37765        -2.69957         7.30643
   C       -7.51054        -3.61290         5.47244
   C       -6.96480        -4.21962         4.26161
   O       -6.50354        -3.72876         3.25657
   N       -7.08537        -5.58590         4.48730
   C       -7.66139        -5.93910         5.71210
   O       -7.86979        -7.06878         6.06994
   C       -7.92473        -4.65102         6.34914
   C       -8.45202        -4.04869         7.47238
   C       -8.98928        -4.62600         8.65860
   C       -9.55124        -3.89522         9.64167
   C      -10.14333        -4.40467        10.85048
   C       -9.78544        -5.48876        11.55434
   C       -8.63484        -6.38270        11.23623
   C      -10.59667        -5.89625        12.76452
   N      -11.26866        -7.15920        12.53587
   C      -12.25756        -7.29086        11.64805
   C      -12.87524        -8.47245        11.34944
   C      -13.95552        -8.62013        10.46845
   C      -14.46368        -7.78618         9.49841
   C      -13.94326        -6.66601         8.76586
   C      -12.61972        -6.37371         8.51040
   C      -12.18019        -5.29181         7.73601
   N      -11.75307        -4.39998         7.14694
   C      -11.55271        -7.17287         8.94831
   N      -10.65877        -7.80569         9.29637
   C      -15.06851        -6.00685         8.10186
   C      -16.22134        -6.81261         8.26009
   C      -15.87065        -7.99289         9.08111
   O      -16.59567        -8.91486         9.38589
   C      -17.43837        -6.47692         7.71996
   C      -17.52276        -5.28242         6.99425
   C      -16.36805        -4.47949         6.84994
   C      -15.13446        -4.82384         7.39170
   S      -16.69855        -3.04561         5.92457
   C      -18.36092        -3.54148         5.74356
   C      -18.65490        -4.71775         6.34442
  Br      -19.54944        -2.45777         4.77833
   H      -10.21599        -2.35391         3.76694
   H       -8.30396        -5.59913         0.46443
   H      -11.03207        -4.63639         5.16573
   H       -7.17160        -0.40470        -1.37032
   H       -7.00824         4.53374         0.22573
   H       -6.17301         4.55895         2.67144
   H       -5.81349         3.00812         3.45380
   H       -7.45241         3.66062         3.48766
   H       -6.36712        -0.49503         2.10079
   H       -7.55308         1.30640         4.26739
   H       -6.60129        -1.61351         3.96394
   H       -8.15774        -0.30671         6.26690
   H       -6.76977        -6.27532         3.81938
   H       -8.96531        -5.70393         8.68315
   H       -9.62850        -2.82487         9.49762
   H      -10.95145        -3.79242        11.23686
   H       -7.85308        -5.83701        10.71373
   H       -8.96487        -7.19954        10.59172
   H       -8.22205        -6.81336        12.14704
   H      -11.35150        -5.13645        12.98895
   H       -9.95142        -6.01146        13.63888
   H      -10.80783        -8.00250        12.84491
   H      -12.62777        -6.36178        11.23518
   H      -12.55764        -9.35872        11.88090
   H      -14.55352        -9.51625        10.60823
   H      -18.29831        -7.11514         7.84937
   H      -14.28333        -4.17644         7.25983
   H      -19.62932        -5.17106         6.33326
*
