# ORCA input file
# SCF done       -179.156699591247          0.000514425924
! CAM-B3LYP def2-SVP def2/J RIJCOSX Grid4 TightSCF
%maxcore 5000
%tddft
    Mode sTDDFT
    Ethresh 5.0
    maxcore 5000
end

%pal
  nprocs 6
  end
* xyz 0 1
   C      -12.45904        -0.95965         0.68962
   C      -12.11164        -2.11178         1.35262
   C      -12.81997        -3.32659         1.25143
   N      -13.34983        -4.34465         1.21413
   C      -11.01649        -2.25556         2.22774
   N      -10.14363        -2.44649         2.95078
   C      -13.60226        -0.82175        -0.21000
   C      -13.65353         0.51525        -0.67596
   C      -14.61601         0.96419        -1.54590
   C      -15.57702         0.04597        -1.98329
   C      -15.51862        -1.28766        -1.51514
   C      -14.54501        -1.73968        -0.63142
   S      -16.79640        -2.25600        -2.18458
   C      -17.38287        -0.87506        -3.07294
   C      -16.66142         0.25445        -2.87866
  Br      -18.89045        -1.05465        -4.17413
   C      -12.53522         1.27061        -0.08537
   O      -12.28656         2.45204        -0.26649
   C      -11.79450         0.32437         0.74649
   C      -10.64138         0.60312         1.44845
   C       -9.91458         1.78546         1.56438
   S      -10.29256         3.31381         0.82244
   C       -8.88052         4.07136         1.45832
   C       -8.14010         3.19308         2.27983
   C       -8.72178         1.89491         2.33342
   C       -8.11959         0.89156         3.10835
   C       -6.99114         1.19338         3.82462
   F       -6.40282         0.25015         4.57071
   C       -6.44724         2.49212         3.81356
   F       -5.36715         2.75882         4.56556
   C       -7.00820         3.48560         3.05880
   C       -8.62875         5.41784         1.09552
   C       -7.42221         6.03518         1.05933
   C       -7.26285         7.41263         0.69416
   O       -8.44702         8.08518         0.53052
   C       -8.42337         9.42057         0.26964
   C       -9.57430        10.15127         0.18979
   F      -10.81083         9.67899         0.34148
   S       -9.31688        11.83227        -0.14259
   C       -6.03397         7.95406         0.54609
   S       -5.65704         9.59796         0.11857
   C       -7.28849        10.23604         0.05560
   C       -7.58462        11.56908        -0.18270
   C       -6.64278        12.58165        -0.43235
   C       -6.87406        13.91856        -0.61517
   C       -5.87500        14.89595        -0.87012
   C       -6.34979        16.16342        -0.98824
   C       -7.75218        16.26661        -0.82870
   S       -8.45006        14.68248        -0.54316
   C       -8.52154        17.41053        -0.85519
   C       -8.08611        18.74157        -1.06542
   C       -9.08196        19.66292        -1.00151
   C      -10.36662        19.11751        -0.73351
   S      -10.25263        17.37174        -0.58641
   C      -11.52101        19.83597        -0.58785
   C      -12.80643        19.34340        -0.29889
   S      -13.23047        17.65059        -0.10445
   C      -14.88494        17.97316         0.21957
   C      -15.13329        19.32594         0.18849
   C      -13.96046        20.08438        -0.10551
   O      -14.23078        21.40542        -0.12311
   C      -15.55961        21.49995         0.15653
   N      -16.12799        22.79601         0.21172
   O      -17.31690        22.85414         0.46193
   O      -15.40122        23.74420         0.01013
   C      -16.16649        20.28924         0.35458
   H      -14.62670         1.98949        -1.88089
   H      -14.54504        -2.76656        -0.30669
   H      -16.88264         1.19596        -3.34731
   H      -10.21276        -0.22401         1.99597
   H       -8.51889        -0.10832         3.17167
   H       -6.59491         4.47850         3.10168
   H       -9.49214         5.97580         0.75693
   H       -6.50962         5.49793         1.25965
   H       -5.15428         7.35216         0.68659
   H       -5.61220        12.25159        -0.47580
   H       -4.83860        14.62115        -0.95402
   H       -5.73492        17.02461        -1.17711
   H       -7.05454        18.97776        -1.25360
   H       -8.94446        20.72166        -1.13100
   H      -11.45746        20.91158        -0.69025
   H      -15.56037        17.16553         0.41079
   H      -17.19971        20.13306         0.58557
*
