# ORCA input file
# SCF done       -182.893565713919          0.000933707611
! CAM-B3LYP def2-SVP def2/J RIJCOSX Grid4 TightSCF
%maxcore 5000
%tddft
    Mode sTDDFT
    Ethresh 5.0
    maxcore 5000
end

%pal
  nprocs 6
  end
* xyz 0 1
   C       -1.29399         0.06899         2.93545
   C       -0.70397         1.27312         3.23184
   C        0.20817         1.46878         4.28795
   N        0.95767         1.69315         5.12885
   C       -0.95453         2.48388         2.55438
   N       -1.12463         3.51406         2.07478
   C       -1.15848        -1.15661         3.71426
   C       -2.02819        -2.13400         3.17022
   C       -2.15318        -3.39171         3.70758
   C       -1.37697        -3.70280         4.83064
   C       -0.49394        -2.72770         5.35228
   C       -0.37532        -1.45194         4.81358
   S        0.38375        -3.32651         6.72410
   C       -0.45006        -4.84825         6.59627
   C       -1.33381        -4.91413         5.57163
  Br       -0.07342        -6.21661         7.81970
   C       -2.71808        -1.57485         1.98787
   O       -3.46222        -2.17754         1.23734
   C       -2.23504        -0.18563         1.86718
   C       -2.45675         0.65120         0.79788
   C       -3.45781         0.57860        -0.18257
   S       -3.09943         1.29759        -1.73425
   C       -4.62928         0.81967        -2.33234
   C       -5.41045         0.18104        -1.41826
   C       -6.79346        -0.26274        -1.76307
   C       -4.76162         0.04661        -0.15048
   C       -5.31798        -0.41107         1.07680
   C       -6.43530        -1.16472         1.26362
   C       -6.89871        -1.62407         2.51927
   C       -6.16311        -1.70664         3.66752
   C       -6.65421        -2.20366         4.88283
   S       -8.34952        -2.51138         5.13182
   C       -8.11491        -3.09268         6.75683
   C       -6.73865        -3.06321         7.08748
   C       -5.92345        -2.54500         6.03946
   C       -4.53390        -2.44272         6.22113
   C       -3.99202        -2.85187         7.40722
   F       -2.66271        -2.76263         7.59946
   C       -4.79575        -3.37169         8.43998
   F       -4.21361        -3.76915         9.58413
   C       -6.15233        -3.47630         8.29236
   C       -9.18204        -3.49180         7.55745
   C      -10.50554        -3.39189         7.18517
   C      -11.57649        -3.77184         7.98120
   C      -12.90393        -3.59887         7.62863
   C      -14.03857        -3.96054         8.38096
   C      -15.22957        -3.63888         7.79132
   C      -15.09328        -3.00054         6.54442
   S      -13.40041        -2.83590         6.13131
   C      -16.09128        -2.52492         5.70941
   C      -17.48606        -2.54742         5.93173
   C      -18.20405        -1.98825         4.92141
   C      -17.42299        -1.47566         3.84716
   S      -15.72614        -1.75214         4.18593
   C      -17.97190        -0.94056         2.71448
   C      -17.40603        -0.41684         1.51619
   C      -16.09667         0.05882         1.34055
   O      -15.37015         0.10729         2.47946
   C      -14.00069         0.44091         2.53614
   C      -15.64524         0.51291         0.05691
   O      -14.34653         0.92862        -0.01576
   C      -13.85191         1.40192        -1.24560
   C      -16.48443         0.53350        -1.03212
   C      -17.81338         0.11740        -0.87831
   C      -18.27979        -0.34901         0.39353
   N      -19.55957        -0.70311         0.35832
   S      -20.12148        -0.46180        -1.13660
   N      -18.76575         0.09517        -1.80806
   H       -2.83295        -4.11193         3.27917
   H        0.30644        -0.74070         5.24874
   H       -1.93292        -5.77839         5.34909
   H       -1.73860         1.44896         0.64380
   H       -4.88335         1.04275        -3.35100
   H       -7.05966         0.10186        -2.75279
   H       -7.51178         0.12585        -1.04333
   H       -6.85569        -1.35003        -1.77260
   H       -4.77905        -0.08821         1.95804
   H       -7.01895        -1.48153         0.41529
   H       -7.91017        -2.01208         2.54909
   H       -5.11711        -1.43716         3.64850
   H       -3.89220        -2.05370         5.44778
   H       -6.74401        -3.87609         9.09914
   H       -8.94715        -3.88023         8.53877
   H      -10.73039        -2.97230         6.21161
   H      -11.37849        -4.22206         8.94527
   H      -13.94733        -4.44604         9.33669
   H      -16.19188        -3.84180         8.22567
   H      -17.91805        -2.96371         6.82405
   H      -19.27728        -1.91581         4.90685
   H      -19.05453        -0.98502         2.67218
   H      -13.72688         0.29850         3.58170
   H      -13.82694         1.47879         2.24881
   H      -13.39593        -0.21921         1.91291
   H      -13.88278         0.62650        -2.01672
   H      -12.81654         1.67769        -1.05126
   H      -14.40390         2.28189        -1.58888
   H      -16.16274         0.87258        -2.00084
*
