# ORCA input file
# SCF done       -155.646869680681          0.000545385978
! CAM-B3LYP def2-SVP def2/J RIJCOSX Grid4 TightSCF
%maxcore 5000
%tddft
    Mode sTDDFT
    Ethresh 5.0
    maxcore 5000
end

%pal
  nprocs 6
  end
* xyz 0 1
   C       -5.32291         2.78131         5.30804
   C       -6.48451         3.47739         5.52441
   C       -7.20069         3.45955         6.73864
   N       -7.81368         3.49805         7.70890
   C       -7.13540         4.27368         4.55956
   N       -7.73543         4.90842         3.81383
   C       -4.70410         1.85469         6.24777
   C       -3.60771         1.22587         5.61010
   C       -2.81774         0.29751         6.24388
   C       -3.11739        -0.01708         7.57384
   C       -4.22326         0.60631         8.19804
   C       -5.02862         1.53630         7.55301
   S       -4.39737         0.09216         9.84793
   C       -2.98554        -0.91280         9.68876
   C       -2.42683        -0.89257         8.45587
  Br       -2.33582        -1.83485        11.18287
   C       -3.49502         1.72510         4.22672
   O       -2.65072         1.41804         3.40943
   C       -4.56162         2.74047         4.07546
   C       -4.70972         3.57699         3.00246
   C       -4.13687         3.43852         1.70993
   S       -3.68195         4.86815         0.82040
   C       -3.06493         3.91434        -0.46263
   C       -3.21945         2.57351        -0.26535
   C       -2.79851         1.51546        -1.22722
   C       -3.86032         2.29146         0.96746
   C       -4.24122         0.99285         1.46649
   C       -5.43376         0.80852         2.07161
   C       -5.73513        -0.17268         3.06258
   C       -4.84213        -1.01186         3.62855
   C       -5.09315        -1.62498         4.90762
   N       -4.22161        -2.51701         5.35336
   C       -4.40642        -2.94270         6.60830
   N       -5.37737        -2.45477         7.41198
   C       -6.21787        -1.61375         6.85405
   N       -6.15031        -1.17450         5.61752
   C       -3.56349        -3.93204         7.16512
   C       -3.73908        -4.32189         8.47166
   C       -3.01139        -5.28395         9.20613
   C       -3.39712        -5.39034        10.51640
   C       -4.43054        -4.50656        10.85699
   S       -4.95910        -3.57407         9.47030
   C       -4.97434        -4.24594        12.11857
   C       -4.73631        -4.86693        13.34540
   C       -5.42088        -4.28339        14.39105
   C       -6.18999        -3.17468        14.02776
   S       -6.06797        -2.90515        12.31395
   C       -7.01459        -2.45423        14.91198
   C       -7.75837        -1.31963        14.76890
   C       -7.88936        -0.27625        13.80205
   C       -7.08628         0.08440        12.72189
   C       -7.41797         1.18596        11.96402
   C       -8.53427         1.97159        12.27888
   C       -9.31881         1.67511        13.36549
   C       -9.01949         0.54825        14.14958
   C       -9.60966         0.08208        15.34133
   C       -8.77588        -1.02227        15.83805
   O       -8.88324        -1.61126        16.89538
   C      -10.76751         0.47040        16.06355
   C      -11.79511         1.21979        15.63227
   H       -1.99268        -0.17278         5.73240
   H       -5.85775         1.98785         8.07118
   H       -1.55559        -1.45849         8.18026
   H       -5.28852         4.48332         3.14362
   H       -2.61375         4.40070        -1.30576
   H       -2.34829         1.95718        -2.11188
   H       -3.65687         0.91624        -1.52771
   H       -2.07446         0.85225        -0.75585
   H       -3.50191         0.20687         1.41578
   H       -6.18620         1.57941         1.94861
   H       -6.71142        -0.10707         3.52532
   H       -3.86325        -1.19115         3.21176
   H       -7.02850        -1.24170         7.47077
   H       -2.79621        -4.36700         6.54676
   H       -2.22190        -5.85721         8.75333
   H       -2.94077        -6.05610        11.22718
   H       -4.08753        -5.71764        13.44696
   H       -5.36704        -4.62629        15.40934
   H       -7.12823        -2.92588        15.88589
   H       -6.19522        -0.47324        12.48818
   H       -6.79950         1.46031        11.12261
   H       -8.76005         2.83219        11.66721
   H      -10.13704         2.32218        13.63634
   H      -10.81000         0.04802        17.06194
   H      -11.85448         1.60086        14.62852
   H      -12.62821         1.43739        16.27772
*
