# ORCA input file
# SCF done       -179.119477406693          0.000486939297
! CAM-B3LYP def2-SVP def2/J RIJCOSX Grid4 TightSCF
%maxcore 5000
%tddft
    Mode sTDDFT
    Ethresh 5.0
    maxcore 5000
end

%pal
  nprocs 6
  end
* xyz 0 1
   C       -3.64748         0.68757         7.62435
   C       -3.94806        -0.65694         7.60352
   C       -3.25539        -1.63282         8.34586
   N       -2.73656        -2.47795         8.92654
   C       -4.97381        -1.26156         6.85156
   N       -5.78099        -1.84065         6.27259
   C       -2.57442         1.29407         8.41154
   C       -2.56843         2.68922         8.16944
   C       -1.67452         3.54190         8.76743
   C       -0.73884         2.99195         9.65134
   C       -0.75253         1.59825         9.88751
   C       -1.65755         0.73491         9.28001
   S        0.48473         1.12848        11.01425
   C        0.99583         2.78990        11.15020
   C        0.27931         3.65291        10.39218
  Br        2.42738         3.22812        12.28115
   C       -3.64724         3.02095         7.21427
   O       -3.91692         4.12915         6.79187
   C       -4.30752         1.73976         6.89996
   C       -5.39491         1.60342         6.05472
   C       -6.02222         2.64379         5.38526
   C       -7.12911         2.45329         4.57083
   C       -7.84904         3.44046         3.87332
   C       -8.91648         2.95487         3.16298
   C       -9.07519         1.56476         3.27093
   S       -7.83999         0.87952         4.29181
   C      -10.05759         0.76010         2.68869
   C      -11.13047         1.14847         1.87580
   C      -11.92584         0.09913         1.48137
   C      -11.50602        -1.14683         1.96305
   S      -10.06922        -0.96416         2.93801
   C      -12.11190        -2.38225         1.73048
   C      -11.63353        -3.58189         2.19730
   C      -12.24276        -4.81590         1.97006
   C      -11.78644        -6.07426         2.38463
   C      -12.59814        -7.11717         2.00867
   C      -13.73003        -6.71335         1.28831
   S      -13.74123        -4.97800         1.08900
   C      -14.76261        -7.48788         0.76481
   C      -14.92552        -8.88416         0.79424
   C      -16.06806        -9.31539         0.17688
   C      -16.85879        -8.27690        -0.36198
   S      -16.09763        -6.73126        -0.06114
   C      -18.05865        -8.38333        -1.03271
   C      -18.75767        -7.26636        -1.50363
   O      -18.24731        -6.01862        -1.29193
   C      -19.95966        -7.12110        -2.18892
   C      -21.08108        -7.85185        -2.77620
   O      -21.31658        -9.03116        -2.83845
   N      -21.89297        -6.84120        -3.29352
   C      -21.42504        -5.54262        -3.10689
   O      -21.97946        -4.54408        -3.47988
   C      -20.16025        -5.73565        -2.38287
   C      -19.08359        -5.07734        -1.81479
   C      -18.75490        -3.70439        -1.69368
   C      -17.61640        -3.29711        -1.07742
   C      -17.23767        -1.94257        -0.90426
   S      -15.74216        -1.52049        -0.09723
   C      -15.98451         0.17025        -0.25209
   C      -17.16788         0.42810        -0.90044
   C      -17.86565        -0.76726        -1.26425
   O      -19.02088        -0.47208        -1.89385
   C      -19.06904         0.88704        -1.93643
   N      -20.19691         1.49301        -2.55296
   O      -20.20385         2.70863        -2.57362
   O      -21.05409         0.77043        -3.00419
   C      -17.98998         1.49527        -1.35937
   H       -1.69560         4.60073         8.56205
   H       -1.62564        -0.31992         9.49503
   H        0.45905         4.71185        10.35576
   H       -5.80214         0.61110         5.90425
   H       -5.64768         3.65025         5.50408
   H       -7.56672         4.47720         3.91522
   H       -9.57768         3.56538         2.57483
   H      -11.30102         2.17326         1.59997
   H      -12.79384         0.19537         0.85350
   H      -13.01783        -2.37556         1.13600
   H      -10.71971        -3.59006         2.77784
   H      -10.87558        -6.18859         2.94500
   H      -12.40236        -8.14861         2.23923
   H      -14.20844        -9.53632         1.25947
   H      -16.36548       -10.34548         0.09529
   H      -18.49641        -9.35289        -1.20811
   H      -22.76106        -7.03777        -3.77085
   H      -19.45993        -3.00223        -2.11185
   H      -16.93612        -4.03670        -0.67773
   H      -15.26732         0.86287         0.13706
   H      -17.82623         2.55001        -1.28324
*
