# ORCA input file
# SCF done       -168.654692331442          0.000424516057
! CAM-B3LYP def2-SVP def2/J RIJCOSX Grid4 TightSCF
%maxcore 5000
%tddft
    Mode sTDDFT
    Ethresh 5.0
    maxcore 5000
end

%pal
  nprocs 6
  end
* xyz 0 1
   C       -0.96436        -2.64377        -3.91932
   C       -1.29336        -3.93237        -3.58011
   C       -0.34352        -4.93975        -3.31431
   N        0.38404        -5.80105        -3.09636
   C       -2.60177        -4.41794        -3.37065
   N       -3.62291        -4.88425        -3.12968
   C        0.38841        -2.10371        -3.95353
   C        0.30675        -0.70105        -4.12121
   C        1.41660         0.10678        -4.16593
   C        2.67120        -0.50051        -4.04828
   C        2.74416        -1.90481        -3.89161
   C        1.62057        -2.72097        -3.84011
   S        4.38988        -2.44937        -3.77223
   C        4.94918        -0.80515        -3.92909
   C        3.95684         0.10604        -4.06534
  Br        6.78983        -0.44457        -3.89737
   C       -1.10884        -0.29296        -4.23503
   O       -1.49623         0.85112        -4.34640
   C       -1.88827        -1.55863        -4.20092
   C       -3.21024        -1.74112        -4.50785
   C       -4.19714        -0.76765        -4.76628
   O       -3.98965         0.56053        -4.59016
   C       -5.50991        -0.93743        -5.19061
   C       -6.50412        -1.92989        -5.61799
   O       -6.43280        -3.12271        -5.74248
   N       -7.63335        -1.15803        -5.89442
   C       -7.47901         0.21531        -5.71614
   O       -8.33239         1.04107        -5.91049
   C       -6.09064         0.34762        -5.26306
   C       -5.11078         1.25279        -4.88547
   C       -5.09645         2.67065        -4.78246
   C       -3.95020         3.32758        -4.49025
   C       -3.85538         4.74379        -4.34632
   C       -2.72930         5.43244        -4.08267
   C       -1.36302         4.84377        -3.96395
   C       -2.78195         6.93615        -3.93142
   N       -2.25215         7.60503        -5.09793
   C       -0.94809         7.91324        -5.25064
   C       -0.38519         8.32588        -6.41917
   C        0.96764         8.68868        -6.53319
   C        1.55670         9.17451        -7.67112
   C        2.91947         9.51394        -7.85046
   C        3.22327         9.99165        -9.08781
   C        2.11406        10.07147        -9.96186
   S        0.67001         9.49379        -9.16077
   C        2.09398        10.54571       -11.25657
   C        3.18363        10.99197       -12.03955
   C        2.83600        11.41239       -13.28278
   C        1.44493        11.32234       -13.57420
   S        0.60431        10.68556       -12.16923
   C        0.86804        11.75405       -14.73223
   C       -0.49320        11.71008       -15.14412
   S       -1.05767        13.07862       -16.08550
   C       -2.63508        12.41853       -16.18069
   C       -2.72834        11.20698       -15.56795
   C       -1.50491        10.78076       -14.98407
   C       -1.36986         9.42035       -14.38649
   S        0.14336         8.55446       -14.99237
   C       -2.59573         8.55209       -14.65590
   C       -3.87148         9.34552       -14.40302
   C       -4.01206        10.42199       -15.48396
   O       -5.13003        11.25569       -15.27914
   H        1.32166         1.17438        -4.28911
   H        1.72901        -3.78589        -3.72211
   H        4.12316         1.16222        -4.17400
   H       -3.58748        -2.75208        -4.59215
   H       -8.50001        -1.56788        -6.21259
   H       -6.03341         3.17662        -4.96135
   H       -3.06123         2.73042        -4.34923
   H       -4.78744         5.28958        -4.43659
   H       -0.68718         5.33628        -4.66519
   H       -1.35125         3.77829        -4.16486
   H       -0.97423         5.01290        -2.95895
   H       -2.18812         7.24612        -3.06690
   H       -3.81315         7.26854        -3.78428
   H       -2.80433         7.53159        -5.94065
   H       -0.35469         7.87715        -4.34647
   H       -0.99653         8.38964        -7.30952
   H        1.59950         8.57660        -5.66126
   H        3.63345         9.39052        -7.05484
   H        4.20723        10.29784        -9.39422
   H        4.19124        10.98180       -11.66423
   H        3.52963        11.78029       -14.01790
   H        1.52748        12.28690       -15.40746
   H       -3.41607        12.95498       -16.68151
   H       -1.19599         9.48614       -13.30822
   H       -0.17667         8.61181       -16.28365
   H       -2.55429         7.66985       -14.01613
   H       -2.58726         8.21375       -15.69552
   H       -3.82447         9.82192       -13.41951
   H       -4.74389         8.69175       -14.42533
   H       -4.20932         9.94118       -16.45147
   H       -5.00790        11.74063       -14.45442
*
