# ORCA input file
# SCF done       -161.502304915198          0.000284639148
! CAM-B3LYP def2-SVP def2/J RIJCOSX Grid4 TightSCF
%maxcore 5000
%tddft
    Mode sTDDFT
    Ethresh 5.0
    maxcore 5000
end

%pal
  nprocs 6
  end
* xyz 0 1
   C        5.56342         1.60397        -2.52507
   C        4.91280         0.52653        -2.98215
   C        4.50925         0.25299        -4.33300
   C        3.86471        -0.92120        -4.49757
   C        3.70127        -1.67693        -3.30036
   S        4.41241        -0.81833        -1.94376
   C        3.08722        -2.89344        -3.16278
   C        2.48479        -3.68261        -4.18050
   C        1.94340        -4.83973        -3.73613
   C        2.07880        -5.06220        -2.33089
   S        2.92953        -3.69493        -1.60737
   C        1.67385        -6.18235        -1.68013
   C        1.75974        -6.43179        -0.26366
   C        1.59795        -5.41289         0.63418
   S        1.63673        -5.88694         2.28033
   C        1.91055        -7.53126         1.79640
   C        1.96937        -7.70153         0.40511
   C        2.35950        -8.96619        -0.10097
   C        2.51325        -9.12900        -1.58864
   C        1.17799        -9.51729        -2.23289
   C        2.61078       -10.03010         0.75888
   C        3.31925       -11.27555         0.27364
   C        2.52288       -12.22310        -0.63377
   C        2.37304        -9.88735         2.15130
   C        2.48183       -10.83061         3.24359
   C        2.38647       -10.21528         4.45637
   S        2.07057        -8.52814         4.38480
   C        2.09047        -8.60542         2.65083
   C        2.54048       -12.28155         3.21014
   C        1.79257       -13.03849         2.39219
   C        1.80302       -14.46464         2.34423
   S        2.83979       -15.40368         3.38207
   C        2.38450       -16.85709         2.58167
   C        1.50732       -16.65282         1.56630
   C        0.94608       -17.73476         0.70519
   C        1.15016       -15.27692         1.43020
   C        0.25684       -14.79337         0.40227
   C       -0.69728       -13.86263         0.58327
   C       -1.47782       -13.27078        -0.46596
   C       -1.04528       -13.12267        -1.73464
   C       -1.77754       -12.48454        -2.77869
   S       -3.48199       -12.16245        -2.66564
   C       -3.50163       -11.43699        -4.22413
   C       -2.26814       -11.40814        -4.80299
   O       -1.92139       -10.82023        -5.97621
   C       -2.97979       -10.44978        -6.83189
   C       -1.27570       -12.03186        -3.98534
   N        0.06901       -12.12512        -4.31726
   C        0.55652       -12.28454        -5.57945
   S        2.22069       -11.87925        -5.94492
   C        2.08959       -12.31649        -7.61024
   C        0.81521       -12.73327        -7.88319
   C       -0.04056       -12.72327        -6.73029
   O       -1.28547       -13.16811        -7.05148
   C       -1.23225       -13.42611        -8.38152
   N       -2.43461       -13.82487        -9.00805
   O       -2.36693       -14.12877       -10.18457
   O       -3.44960       -13.81476        -8.34087
   C       -0.00701       -13.20037        -8.94716
   H        5.84875         2.39709        -3.19351
   H        5.81991         1.71237        -1.48734
   H        4.72240         0.95455        -5.12017
   H        3.49303        -1.28173        -5.44056
   H        2.47940        -3.36681        -5.20849
   H        1.44942        -5.56222        -4.36253
   H        1.20067        -6.93173        -2.29458
   H        1.39530        -4.38533         0.40596
   H        2.87339        -8.19293        -2.01790
   H        3.25529        -9.89154        -1.81719
   H        1.28230        -9.58153        -3.31467
   H        0.40361        -8.79006        -1.99993
   H        0.83308       -10.47391        -1.85029
   H        3.64969       -11.82913         1.15022
   H        4.22392       -10.95876        -0.25371
   H        1.45947       -12.17115        -0.41803
   H        2.84787       -13.24844        -0.47186
   H        2.67334       -11.98984        -1.68516
   H        2.42995       -10.69283         5.41629
   H        3.14165       -12.75218         3.97846
   H        1.14453       -12.55242         1.67951
   H        2.79979       -17.78735         2.91623
   H        1.28990       -18.70833         1.04440
   H        1.25885       -17.59686        -0.32992
   H       -0.14247       -17.71364         0.73276
   H        0.37529       -15.24976        -0.57277
   H       -0.92205       -13.52774         1.58786
   H       -2.43847       -12.85420        -0.19305
   H       -0.05895       -13.48071        -2.00294
   H       -4.42803       -11.05898        -4.60382
   H       -2.51088       -10.07619        -7.74108
   H       -3.59125        -9.65800        -6.38872
   H       -3.61210       -11.31108        -7.06760
   H        0.73529       -12.10576        -3.56040
   H        2.94287       -12.24250        -8.24968
   H        0.24604       -13.33924        -9.97765
*
