# ORCA input file
# SCF done       -134.900620492541          0.000620635987
! CAM-B3LYP def2-SVP def2/J RIJCOSX Grid4 TightSCF
%maxcore 5000
%tddft
    Mode sTDDFT
    Ethresh 5.0
    maxcore 5000
end

%pal
  nprocs 6
  end
* xyz 0 1
   C        3.44648       -14.76424         6.49541
   C        2.84118       -13.70941         5.93821
   C        1.43248       -13.44483         5.85662
   C        1.11419       -12.29523         5.22641
   C        2.23609       -11.55624         4.74535
   S        3.72206       -12.39062         5.15181
   C        2.20692       -10.40811         3.99738
   C        1.06650        -9.75346         3.46152
   C        1.35216        -8.75561         2.59152
   C        2.74396        -8.52925         2.37918
   S        3.67215        -9.60642         3.42964
   C        3.26225        -7.71839         1.41681
   C        4.62841        -7.44574         1.12487
   O        4.94871        -7.22337        -0.18587
   C        6.24447        -6.98163        -0.27563
   C        6.82819        -7.02827         0.96978
   N        8.20902        -6.89391         1.22824
   O        8.61850        -7.23264         2.32362
   O        8.90335        -6.46626         0.32698
   C        5.77707        -7.30773         1.90242
   N        5.89283        -7.29423         3.26993
   C        6.71131        -6.35662         3.87890
   O        6.97892        -5.20715         3.19465
   C        7.76869        -4.44386         3.93620
   C        8.01671        -5.06246         5.14091
   N        8.78784        -4.55065         6.19428
   O        9.31999        -3.47162         6.03940
   O        8.86186        -5.21947         7.21768
   C        7.33221        -6.32889         5.11599
   N        7.33417        -7.20657         6.14701
   C        6.73731        -8.44409         6.18185
   C        6.63064        -9.18092         7.29293
   C        7.10963        -8.73735         8.64271
   C        5.94295       -10.51493         7.24116
   N        4.61038       -10.38290         7.79939
   C        3.91549       -11.45355         8.26391
   C        2.57739       -11.50091         8.40864
   C        1.88734       -12.63683         8.93722
   O        2.58322       -13.71059         9.40916
   C        1.72411       -14.65055         9.78084
   C        0.42999       -14.21841         9.55813
   N       -0.73974       -14.95798         9.76189
   O       -0.63395       -16.08122        10.21677
   O       -1.80308       -14.44169         9.44346
   C        0.52559       -12.89931         9.00933
   N       -0.52590       -12.08041         8.70992
   H        2.87051       -15.54988         6.95134
   H        4.51619       -14.86506         6.50332
   H        0.72140       -14.13924         6.26730
   H        0.10805       -11.94673         5.07318
   H        0.06922       -10.07209         3.70549
   H        0.61481        -8.17853         2.06269
   H        2.56132        -7.28309         0.71702
   H        6.67821        -6.80512        -1.24001
   H        5.09821        -7.63916         3.79291
   H        8.11184        -3.50939         3.54083
   H        7.86457        -6.89895         6.95785
   H        6.36775        -8.80638         5.23416
   H        8.14819        -9.03226         8.79638
   H        6.50760        -9.20832         9.41602
   H        7.04365        -7.65882         8.76539
   H        6.48536       -11.24634         7.84575
   H        5.90191       -10.88071         6.20538
   H        4.05768        -9.64230         7.39061
   H        4.51823       -12.29695         8.56877
   H        1.95959       -10.66942         8.10387
   H        2.09582       -15.56851        10.18800
   H       -1.42322       -12.54476         8.67575
   H       -0.36132       -11.34894         8.04061
*
