# ORCA input file
# SCF done       -184.618061429034          0.000403565710
! CAM-B3LYP def2-SVP def2/J RIJCOSX Grid4 TightSCF
%maxcore 5000
%tddft
    Mode sTDDFT
    Ethresh 5.0
    maxcore 5000
end

%pal
  nprocs 6
  end
* xyz 0 1
   C        1.91037         0.18442         5.85981
   C        0.96823         0.85533         6.58893
   F        0.48244         0.30033         7.71242
   C        0.48089         2.11441         6.21076
   C        0.96328         2.69598         5.07168
   C        1.93606         2.04887         4.28180
   C        2.41733         0.76756         4.68215
   C        3.38594         0.09465         3.90213
   C        3.85718         0.68548         2.76028
   C        3.38529         1.97429         2.37500
   C        2.44643         2.64352         3.10702
   C        4.07680         2.40139         1.14651
   O        3.90342         3.40587         0.49808
   C        5.10652         1.34793         0.89245
   C        4.81495         0.22087         1.76130
   C        5.17698        -1.08253         1.55627
   C        5.91831        -1.53211         0.44373
   N        6.47660        -1.96155        -0.46232
   C        4.78061        -2.14641         2.39425
   N        4.49490        -3.04198         3.05207
   C        6.13186         1.61565         0.05169
   C        7.37655         0.91588        -0.08318
   C        8.06852         0.85376        -1.30544
   N        9.21156         0.23246        -1.44475
   C        9.71657        -0.37626        -0.36728
   N        9.17530        -0.32954         0.85511
   C        8.04430         0.31192         0.99546
   C       10.94122        -1.09913        -0.51010
   C       11.71641        -1.23953        -1.64386
   C       12.85859        -1.99645        -1.38816
   C       12.93054        -2.43236        -0.04861
   S       11.60553        -1.91108         0.88693
   C       14.13161        -3.16987         0.11712
   C       14.81896        -3.19394        -1.10721
   C       14.03730        -2.46385        -2.09629
   C       14.35852        -2.25997        -3.40575
   C       15.54739        -2.76819        -3.97083
   N       16.51460        -3.17965        -4.42928
   C       13.53295        -1.52536        -4.28385
   N       12.87618        -0.92809        -5.00894
   C       16.03558        -3.87078        -1.03507
   C       16.27611        -4.36465         0.23479
   S       14.97443        -3.99241         1.35436
   C       17.42437        -5.06525         0.68352
   C       17.65294        -5.59683         1.93955
   C       18.91748        -6.17597         2.03842
   C       19.65636        -6.08266         0.84610
   S       18.79074        -5.29567        -0.39860
   C       20.93167        -6.66120         1.05761
   C       21.00251        -7.12013         2.38609
   C       19.72786        -6.85557         3.03731
   C       19.35991        -7.20039         4.30362
   C       20.22164        -7.91042         5.16790
   N       20.91664        -8.50287         5.86034
   C       18.08272        -6.89283         4.81911
   N       17.04359        -6.64183         5.23332
   C       22.24128        -7.66528         2.71305
   C       23.12348        -7.63615         1.64351
   S       22.38252        -6.93025         0.20589
   C       24.46891        -8.05855         1.53704
   C       25.31488        -8.43515         2.53169
   C       26.68569        -8.85284         2.35917
   C       27.35572        -9.11035         3.57270
   C       26.51834        -8.89808         4.72630
   C       26.83258        -9.01387         6.05560
   C       28.08743        -9.39464         6.56284
   N       29.08729        -9.69894         7.03914
   C       25.87643        -8.72683         7.05342
   N       25.10719        -8.48107         7.86769
   S       24.90783        -8.41917         4.24493
   C       28.68801        -9.51769         3.56533
   C       29.33944        -9.66864         2.35726
   C       28.67942        -9.41820         1.15909
   C       27.35990        -9.01213         1.15150
   H        2.25977        -0.78497         6.17915
   H       -0.26257         2.59565         6.82612
   H        0.60358         3.66500         4.76017
   H        3.73942        -0.86908         4.23310
   H        2.09807         3.61601         2.79299
   H        6.01727         2.51117        -0.55195
   H        7.66039         1.30850        -2.19872
   H        7.66324         0.39249         2.00685
   H       11.44036        -0.79875        -2.58400
   H       16.72274        -4.00303        -1.85150
   H       16.92720        -5.55084         2.73157
   H       22.48461        -8.07684         3.67452
   H       24.87163        -8.04671         0.53276
   H       29.20509        -9.71526         4.48965
   H       30.37057        -9.98560         2.34554
   H       29.20371        -9.54333         0.22397
   H       26.85840        -8.82381         0.21529
*
