# ORCA input file
# SCF done       -176.560498481543          0.000855501597
! CAM-B3LYP def2-SVP def2/J RIJCOSX Grid4 TightSCF
%maxcore 5000
%tddft
    Mode sTDDFT
    Ethresh 5.0
    maxcore 5000
end

%pal
  nprocs 6
  end
* xyz 0 1
   C       -8.98109        -5.55645         1.42479
   C       -9.19139        -5.80124         0.09019
   C       -9.23120        -7.09050        -0.47914
   N       -9.28268        -8.11039        -1.00471
   C       -9.36017        -4.82345        -0.91201
   N       -9.48488        -4.09679        -1.79331
   C       -8.70254        -6.57644         2.42943
   C       -8.40336        -5.93267         3.65338
   C       -8.09049        -6.62209         4.79903
   C       -8.07448        -8.01940         4.73390
   C       -8.37826        -8.65546         3.50714
   C       -8.69238        -7.95643         2.34806
   S       -8.30842       -10.38613         3.65005
   C       -7.87675       -10.23287         5.33254
   C       -7.78890        -8.95367         5.76718
  Br       -7.58637       -11.77728         6.35645
   C       -8.49756        -4.46893         3.47846
   O       -8.31469        -3.64110         4.34632
   C       -8.91368        -4.26147         2.07427
   C       -9.32330        -3.09094         1.48658
   C       -9.23442        -1.76212         1.92896
   C       -8.53015        -1.15676         2.96542
   C       -8.69678         0.21882         2.98253
   C       -9.55144         0.69026         1.95251
   S      -10.11700        -0.56535         0.95717
   C       -9.66703         2.08727         2.07010
   C       -8.88831         2.51809         3.16265
   C       -8.24337         1.35629         3.76088
   C       -7.37067         1.35822         4.81013
   C       -6.73905         0.19129         5.29158
   N       -6.19143        -0.73092         5.69576
   C       -7.01233         2.54837         5.47739
   N       -6.71859         3.51455         6.02115
   C       -8.92970         3.89450         3.35070
   C       -9.73356         4.52585         2.41110
   S      -10.45244         3.38891         1.27913
   C       -9.98704         5.90769         2.28374
   S       -9.25206         7.05406         3.39219
   C       -9.99805         8.34956         2.54838
   C      -10.77889         7.91245         1.47084
   C      -10.77232         6.53754         1.32504
   C      -11.40252         9.08481         0.75174
   C      -10.93520         9.15767        -0.70444
   C      -12.93132         9.03617         0.82790
   C      -10.84939        10.23128         1.56553
   C      -10.04145         9.75430         2.60839
   S       -9.38562        11.02196         3.55821
   C      -10.18903        12.21572         2.54528
   C      -10.93125        11.60782         1.53010
   C      -10.01207        13.58216         2.81941
   C      -10.54497        14.59980         2.07269
   C      -10.34792        15.95592         2.34261
   C      -10.86600        16.97119         1.57020
   C      -10.71069        18.36329         1.76176
   C      -11.33376        19.13263         0.82506
   C      -12.01875        18.38872        -0.16188
   S      -11.84571        16.67542         0.14301
   C      -12.73843        18.86188        -1.24021
   C      -12.96421        20.20527        -1.61994
   C      -13.71730        20.34134        -2.74138
   C      -14.14149        19.11261        -3.32903
   S      -13.52504        17.77594        -2.36810
   C      -14.90106        19.02550        -4.45840
   C      -15.39020        17.87316        -5.14855
   C      -16.15251        18.03726        -6.32177
   N      -16.63770        17.02947        -7.01402
   C      -16.37879        15.81360        -6.55919
   N      -15.68061        15.52313        -5.47509
   C      -15.19389        16.53095        -4.77914
   H       -7.86483        -6.09942         5.71526
   H       -8.92050        -8.48854         1.43990
   H       -7.53454        -8.67750         6.77415
   H       -9.81331        -3.18816         0.52451
   H       -7.93721        -1.71862         3.66387
   H       -8.40955         4.43574         4.12050
   H      -11.29789         5.98716         0.56503
   H      -11.28103         8.28425        -1.25143
   H       -9.84913         9.19215        -0.75223
   H      -11.33383        10.05015        -1.17989
   H      -13.30337         8.16103         0.30119
   H      -13.35561         9.92713         0.37216
   H      -13.25755         8.98501         1.86423
   H      -11.49648        12.16937         0.80967
   H       -9.39936        13.83110         3.67589
   H      -11.15170        14.35948         1.21008
   H       -9.75092        16.23598         3.20044
   H      -10.14106        18.75354         2.58680
   H      -11.31854        20.20761         0.81703
   H      -12.56442        21.02881        -1.05597
   H      -13.99058        21.28517        -3.17914
   H      -15.17741        19.97307        -4.90693
   H      -16.37131        19.02723        -6.70527
   H      -16.77514        14.98232        -7.12661
   H      -14.63072        16.25626        -3.89783
*
