# ORCA input file
# SCF done       -217.645471563502          0.000490374417
! CAM-B3LYP def2-SVP def2/J RIJCOSX Grid4 TightSCF
%maxcore 5000
%tddft
    Mode sTDDFT
    Ethresh 5.0
    maxcore 5000
end

%pal
  nprocs 6
  end
* xyz 0 1
   C       -2.59826         1.03642         8.35849
   C       -2.69912         2.37540         8.58986
   C       -2.45821         3.11429         7.41642
   C       -2.17819         2.29459         6.31451
   S       -2.21137         0.63736         6.71845
   C       -1.94330         3.11252         5.17188
   C       -2.08089         4.45536         5.57416
   C       -2.41672         4.49999         6.99122
   C       -2.65548         5.61348         7.74360
   C       -2.61177         6.91101         7.19314
   N       -2.58769         7.96647         6.74457
   C       -2.97474         5.54120         9.11551
   N       -3.23090         5.48830        10.23198
   C       -1.85856         5.33990         4.53290
   C       -1.56351         4.68913         3.33549
   S       -1.56865         2.93759         3.52015
   C       -1.28724         5.38255         2.13363
   C       -1.06649         4.94482         0.82490
   C       -1.03272         3.56176         0.42015
   O       -1.16703         2.61303         1.18229
   C       -0.80062         3.35949        -1.02336
   C       -0.73387         4.43262        -1.95152
   C       -0.52971         3.98728        -3.23422
   S       -0.40587         2.27586        -3.33649
   C       -0.64407         2.14019        -1.64051
   C       -0.65468         0.78327        -1.00810
   F        0.28849         0.63908        -0.07270
   F       -1.83023         0.47886        -0.45032
   F       -0.41926        -0.17022        -1.92850
   C       -0.40514         4.80807        -4.48065
   F        0.55494         5.72921        -4.40442
   F       -0.09554         4.02385        -5.53172
   F       -1.54389         5.42817        -4.80490
   C       -0.87913         5.84900        -1.54569
   O       -1.05383         6.74281        -2.34681
   C       -0.87020         6.02355        -0.09434
   C       -0.87262         7.25951         0.52178
   S       -1.21551         7.12644         2.21381
   C       -0.61349         8.55446        -0.03806
   C        0.33394         8.82242        -1.01394
   F        1.15182         7.85104        -1.43662
   C        0.53906        10.10112        -1.54522
   F        1.50676        10.18257        -2.47703
   C       -0.16746        11.24608        -1.16683
   C       -1.09507        11.00176        -0.11338
   C       -1.29069         9.69862         0.43179
   N       -2.19875         9.79479         1.40913
   N       -2.50650        11.05894         1.44233
   N       -1.90148        11.82581         0.57611
   C       -3.44413        11.56884         2.39213
   C        0.01412        12.54629        -1.75794
   C       -0.79572        13.60918        -1.41283
   C       -0.71499        14.89419        -1.93782
   C        0.24663        15.21067        -3.00119
   C        1.15159        14.32804        -3.48109
   S        1.30117        12.71423        -2.94690
   C       -0.00671        16.55768        -3.36706
   C       -1.05167        17.06076        -2.58995
   C       -1.35345        18.40389        -2.91087
   C       -0.55066        18.87132        -3.90102
   S        0.60171        17.71388        -4.48224
   C       -1.49593        16.04579        -1.67336
   C       -2.51964        16.30435        -0.73359
   C       -2.89237        15.56362         0.34536
   C       -3.93954        15.93858         1.22210
   C       -4.80618        17.02127         1.16030
   C       -5.70851        17.03900         2.22008
   C       -5.54325        15.96625         3.10745
   S       -4.26654        14.93595         2.63214
   C       -6.51422        16.07862         4.13784
   C       -7.29056        17.22182         3.89987
   C       -6.81597        17.86637         2.69466
   C       -7.29013        19.00681         2.11268
   C       -8.37250        19.73238         2.65146
   N       -9.25240        20.32689         3.08475
   C       -6.72505        19.53470         0.93412
   N       -6.26437        19.96683        -0.02354
   C       -8.28496        17.40853         4.88079
   C       -8.24580        16.42690         5.82154
   S       -7.00215        15.24745         5.54723
   H       -2.72951         0.23950         9.06306
   H       -2.93206         2.80099         9.54875
   H       -1.90692         6.41159         4.61120
   H       -4.27178        12.05617         1.87660
   H       -2.95941        12.29957         3.03990
   H       -3.80696        10.73142         2.98280
   H       -1.56561        13.39389        -0.69064
   H        1.85643        14.59017        -4.25489
   H       -2.11934        18.99597        -2.44378
   H       -0.55586        19.84780        -4.34445
   H       -3.03364        17.24297        -0.89553
   H       -2.37164        14.65330         0.59918
   H       -4.77803        17.75398         0.37586
   H       -8.98986        18.21962         4.89337
   H       -8.87694        16.31099         6.67956
*
