# ORCA input file
# SCF done       -173.993282978270          0.000614779689
! CAM-B3LYP def2-SVP def2/J RIJCOSX Grid4 TightSCF
%maxcore 5000
%tddft
    Mode sTDDFT
    Ethresh 5.0
    maxcore 5000
end

%pal
  nprocs 6
  end
* xyz 0 1
   C        5.23491         8.59433        11.24646
   C        5.68970         7.65579        10.37500
   C        5.33248         7.96597         9.04684
   C        4.59888         9.16212         8.95626
   S        4.35624         9.88750        10.48499
   C        4.28509         9.40252         7.59864
   C        4.82116         8.35600         6.82582
   C        5.49831         7.41891         7.72338
   C        6.15183         6.27037         7.37166
   C        6.26501         5.82359         6.04031
   N        6.38273         5.43145         4.96809
   C        6.77425         5.43887         8.32390
   N        7.28570         4.74719         9.08374
   C        4.57765         8.48925         5.46762
   C        3.85083         9.64394         5.17189
   S        3.47292        10.55941         6.63457
   C        3.41215        10.16083         3.94555
   C        3.59598         9.64108         2.68511
   C        3.14432        10.24457         1.48531
   C        3.46057         9.55548         0.35233
   C        4.17489         8.36397         0.59223
   S        4.43103         8.14636         2.30993
   C        4.65788         7.44125        -0.31808
   C        4.58933         7.47489        -1.72871
   C        5.19606         6.41475        -2.32993
   C        5.77235         5.48118        -1.42905
   S        5.50311         6.00822         0.22120
   C        6.45880         4.34516        -1.77336
   C        7.03265         3.40122        -0.90052
   C        7.79065         2.30976        -1.27951
   C        8.24380         1.53700        -0.19617
   C        7.80449         2.05300         1.03830
   S        6.85237         3.49025         0.84523
   C        8.09738         1.48573         2.27070
   O        7.54141         2.13892         3.31946
   C        7.97690         1.96941         4.64615
   C        8.88687         0.32062         2.24925
   C        9.36381        -0.19081         0.99687
   C        9.06214         0.38142        -0.22540
   O        9.43853         0.00089        -1.47519
   C       10.26962        -1.11594        -1.67482
   S       10.33690        -1.63069         1.26484
   C       10.07755        -1.56523         2.99161
   C        9.30344        -0.49045         3.33123
   C       10.59711        -2.52601         3.90594
   C       11.50074        -3.56588         3.72646
   C       12.20737        -3.89675         2.44925
   C       13.40995        -2.97602         2.23386
   C       11.74271        -4.26795         4.91060
   C       11.03906        -3.81074         6.00838
   S       10.04954        -2.45292         5.55957
   C       11.00979        -4.27299         7.34605
   C       11.76828        -5.28725         7.83849
   C       11.67491        -5.71048         9.18754
   C       10.83711        -5.26610        10.20136
   C       11.12263        -6.02294        11.38539
   C       12.18161        -6.95936        11.07333
   O       12.76028        -7.79565        11.73226
   N       12.46445        -6.71091         9.71665
   C       13.48058        -7.44736         9.01750
   C       10.28475        -5.58733        12.37229
   N        9.49146        -4.60090        11.87297
   C        9.78073        -4.34217        10.51419
   O        9.19492        -3.49687         9.86015
   C        8.47826        -3.88378        12.59523
   H        5.35585         8.62040        12.31079
   H        6.25147         6.78867        10.67118
   H        4.90648         7.79288         4.71937
   H        2.86631        11.09470         3.99610
   H        2.60283        11.17415         1.49915
   H        3.19860         9.87157        -0.64144
   H        4.10569         8.27691        -2.25717
   H        5.25178         6.26903        -3.39448
   H        6.58549         4.15031        -2.83087
   H        8.02145         2.07591        -2.30255
   H        7.58466         2.83469         5.18136
   H        9.06744         1.96439         4.71921
   H        7.56431         1.05962         5.09309
   H        9.79611        -2.04115        -1.33573
   H       11.23680        -0.99739        -1.17910
   H       10.42390        -1.16788        -2.75216
   H        9.04359        -0.31299         4.35709
   H       11.52389        -3.80833         1.60343
   H       12.55114        -4.93178         2.49824
   H       13.08980        -1.93944         2.16701
   H       13.92441        -3.23911         1.31316
   H       14.10885        -3.06733         3.06243
   H       12.41734        -5.10437         4.95769
   H       10.32191        -3.76733         8.01107
   H       12.47260        -5.80103         7.20090
   H       13.91469        -8.14209         9.73726
   H       14.26262        -6.78228         8.64446
   H       13.05569        -8.01368         8.18553
   H       10.19231        -5.90686        13.39373
   H        7.71055        -4.56435        12.96884
   H        8.02711        -3.17753        11.89790
   H        8.91092        -3.33557        13.43465
*
