# ORCA input file
# SCF done       -250.324588833875          0.000881115111
! CAM-B3LYP def2-SVP def2/J RIJCOSX Grid4 TightSCF
%maxcore 5000
%tddft
    Mode sTDDFT
    Ethresh 5.0
    maxcore 5000
end

%pal
  nprocs 6
  end
* xyz 0 1
   C        1.13402         8.95268         0.33447
   C        2.29347         9.67228         0.25644
   C        2.52969        10.68702        -0.69696
   N        2.77494        11.50930        -1.45747
   C        3.34628         9.54339         1.18735
   N        4.19732         9.50305         1.95617
   C       -0.08998         9.21686        -0.41800
   C       -1.17647         8.61859         0.25167
   C       -2.46890         8.74150        -0.21471
   C       -2.68113         9.47474        -1.38064
   C       -1.60383        10.05710        -2.05812
   C       -0.30260         9.93285        -1.58544
   C       -1.84326        10.76912        -3.36554
   O       -1.86452        10.20067        -4.42292
   O       -1.92955        12.07965        -3.18410
   C       -2.21083        12.85112        -4.34702
   C       -4.04622         9.68028        -1.93860
   O       -4.29839        10.48032        -2.80509
   O       -4.95268         8.88590        -1.37194
   C       -6.28290         9.01490        -1.85783
   C       -0.68574         7.88428         1.43688
   O       -1.32389         7.29895         2.27713
   C        0.80192         7.96998         1.35116
   C        1.57478         7.14152         2.08989
   C        2.95600         6.82551         1.88733
   C        3.57414         6.59352         0.69509
   C        4.92450         6.13347         0.95368
   C        5.86013         5.83027        -0.04596
   N        6.61642         5.56611        -0.86700
   C        5.11808         6.05004         2.30410
   C        3.91239         6.48947         2.95699
   C        3.73749         6.73923         4.29079
   C        4.60986         6.31449         5.41652
   C        4.30435         7.11457         6.48254
   C        3.20994         7.98068         6.11311
   C        2.82799         7.70884         4.82332
   C        2.64536         8.94535         6.96140
   N        2.19068         9.72978         7.66389
   C        5.47111         5.18624         5.48608
   C        5.42880         4.10003         4.67134
   C        6.26365         2.95430         4.79261
   C        6.64723         2.15458         3.75074
   C        7.65609         1.24117         4.22101
   C        8.26508         0.25318         3.43364
   N        8.76213        -0.55417         2.78764
   C        7.91042         1.48549         5.55127
   C        7.00866         2.50038         5.99530
   C        6.70337         2.79783         7.30223
   C        7.54241         2.56204         8.50322
   C        6.75833         2.82789         9.60039
   C        5.45329         3.22397         9.15151
   C        5.43051         3.24635         7.77629
   C        4.38205         3.54613         9.99797
   N        3.51017         3.82099        10.69123
   C        8.93034         2.27871         8.47875
   C        9.65897         1.95124         9.58370
   C       11.05042         1.69173         9.58353
   C       11.96555         1.96510         8.59760
   C       13.28436         1.70981         9.10981
   C       14.46224         1.85876         8.36200
   N       15.41714         1.99763         7.74173
   C       13.19935         1.31679        10.42633
   C       11.81637         1.22867        10.77184
   C       11.31041         0.68630        11.92695
   C       12.04075         0.50521        13.20143
   C       11.25570        -0.26511        14.01473
   C       10.03525        -0.58344        13.31263
   C       10.04848         0.02411        12.08208
   C        9.00769        -1.38447        13.83141
   N        8.16367        -2.03067        14.26339
   C       13.25308         1.16655        13.54388
   C       14.07959         0.77981        14.54852
   C       15.27296         1.47262        14.86078
   C       16.28974         1.03097        15.65236
   C       16.56780        -0.27796        16.20221
   C       16.23227        -1.48135        15.64025
   C       16.55901        -2.73384        16.20334
   N       16.76986        -3.77734        16.63086
   C       15.61132        -1.60733        14.37840
   N       15.15628        -1.75342        13.33493
   C       17.48438        -0.08731        17.32630
   C       17.93444         1.24780        17.32221
   C       17.26988         1.99214        16.22879
   O       17.43673         3.14149        15.89858
   C       18.84301         1.70754        18.25248
   C       19.30782         0.81364        19.21498
   C       18.86143        -0.51205        19.22607
   C       17.95034        -0.97451        18.28326
   C       19.44478        -1.47396        20.22727
   O       20.52942        -1.97321        20.10138
   O       18.57841        -1.73824        21.19739
   C       19.04884        -2.59692        22.23082
   C       20.24587         1.23928        20.29016
   O       20.36154         0.65605        21.33940
   O       20.92531         2.33690        19.96467
   C       21.85237         2.80749        20.93487
   H       -3.29292         8.28582         0.31115
   H        0.51181        10.37898        -2.13390
   H       -3.22253        12.63158        -4.69178
   H       -1.50093        12.61215        -5.14100
   H       -2.12274        13.89230        -4.04882
   H       -6.87562         8.28357        -1.31497
   H       -6.31335         8.81675        -2.93089
   H       -6.65560        10.02479        -1.67604
   H        1.05953         6.59013         2.87145
   H        3.14608         6.68461        -0.28658
   H        6.04272         5.82226         2.79785
   H        4.74264         7.07984         7.46254
   H        2.08547         8.24142         4.26130
   H        6.15773         5.19033         6.32300
   H        4.75683         4.09261         3.82319
   H        6.31455         2.21785         2.73150
   H        8.55091         0.89375         6.17626
   H        7.04519         2.79039        10.63405
   H        4.57020         3.44196         7.16645
   H        9.42859         2.33354         7.52254
   H        9.15295         1.88905        10.53524
   H       11.77332         2.34625         7.61270
   H       14.01925         0.98557        11.03389
   H       11.45700        -0.56068        15.02682
   H        9.30739        -0.10716        11.31730
   H       13.53628         2.02005        12.94213
   H       13.83192        -0.09714        15.12891
   H       15.37410         2.48817        14.49194
   H       19.18014         2.73196        18.23822
   H       17.62025        -2.00055        18.31634
   H       19.84499        -2.09735        22.78512
   H       19.43619        -3.52457        21.80525
   H       18.19572        -2.79233        22.87493
   H       22.51981         1.99977        21.24122
   H       21.32206         3.17931        21.81409
   H       22.41024         3.60870        20.45751
*
