# ORCA input file
# SCF done       -209.955246363819          0.000647587197
! CAM-B3LYP def2-SVP def2/J RIJCOSX Grid4 TightSCF
%maxcore 5000
%tddft
    Mode sTDDFT
    Ethresh 5.0
    maxcore 5000
end

%pal
  nprocs 6
  end
* xyz 0 1
   C        0.05786         0.33163        -0.04134
   C        1.05168         1.27680        -0.04007
   C        2.24618         1.15688         0.70090
   N        3.23755         1.10681         1.27661
   C        1.04659         2.42760        -0.85040
   N        1.09496         3.36588        -1.51112
   C        0.15625        -0.97583         0.60035
   C       -0.77816        -1.85700        -0.01841
   C       -0.87857        -3.16792         0.34882
   C       -0.04601        -3.66020         1.37933
   C        0.86991        -2.77664         2.02057
   C        0.95934        -1.42554         1.61291
   C        1.68371        -3.27696         3.05696
   C        1.60325        -4.58848         3.43899
   C        0.70474        -5.45884         2.80413
   C       -0.10241        -5.00459         1.79657
   C       -1.55367        -1.11214        -1.02421
   O       -2.39921        -1.53059        -1.78194
   C       -1.12301         0.30976        -0.87849
   C       -1.89487         1.28283        -1.43798
   C       -1.92513         2.66311        -1.14638
   C       -1.45401         3.32820        -0.02362
   C       -1.67126         4.69723        -0.09199
   C       -2.32752         5.09198        -1.27716
   S       -2.68995         3.76912        -2.28510
   C       -2.46024         6.49978        -1.26315
   C       -1.88314         6.99830        -0.07956
   C       -1.36602         5.87838         0.69329
   C       -0.70435         5.91823         1.88524
   C       -0.45127         7.12656         2.56788
   N       -0.25719         8.10798         3.12742
   C       -0.23886         4.73952         2.50567
   N        0.12733         3.77286         3.00205
   C       -1.94658         8.38488         0.01828
   C       -2.57321         8.95288        -1.08176
   S       -3.08804         7.74594        -2.24917
   C       -2.79982        10.33038        -1.32047
   C       -2.38584        11.39691        -0.53779
   C       -2.76463        12.62120        -1.08050
   C       -3.48338        12.49171        -2.28958
   S       -3.68233        10.85676        -2.74869
   C       -3.81135        13.77621        -2.76379
   C       -3.29071        14.73170        -1.86111
   C       -2.63678        14.03120        -0.76353
   C       -2.06226        14.59174         0.33898
   C       -2.05689        15.98706         0.55475
   N       -2.08049        17.11818         0.73949
   C       -1.47339        13.80782         1.35424
   N       -1.00682        13.17033         2.18476
   C       -3.52525        16.03827        -2.24590
   C       -4.24241        16.11979        -3.44204
   S       -4.62753        14.51277        -4.07269
   C       -4.66960        17.24577        -4.15432
   C       -4.29999        18.55604        -3.93862
   C       -4.78733        19.67763        -4.65167
   C       -4.22380        20.86556        -4.28569
   C       -3.24841        20.74038        -3.27544
   S       -3.09347        19.07715        -2.77972
   C       -2.44989        21.72110        -2.70396
   C       -2.45990        23.11126        -2.93544
   C       -1.51945        23.79012        -2.21400
   C       -0.71778        22.96606        -1.39253
   S       -1.21426        21.29672        -1.54545
   C        0.33164        23.36373        -0.58484
   C        1.10474        22.45939         0.13720
   C        2.16288        22.79478         0.95670
   C        3.00818        21.88157         1.68356
   C        3.02419        20.50934         1.58672
   C        3.88884        19.67776         2.32586
   N        4.56543        18.94838         2.90001
   C        2.22752        19.73744         0.71697
   N        1.64093        19.03740         0.01954
   C        3.90673        22.67747         2.51776
   C        3.66442        24.04958         2.26359
   C        2.57931        24.17680         1.26816
   O        2.13286        25.21441         0.81869
   C        4.36283        25.05359         2.88719
   C        5.34686        24.68728         3.81223
   C        5.57766        23.31510         4.06437
   C        4.87254        22.29868         3.43001
   S        6.83215        23.08411         5.24477
   C        7.02701        24.81153         5.37996
   C        6.19702        25.52612         4.58410
  Br        8.30817        25.50891         6.55965
   H       -1.58544        -3.82233        -0.13932
   H        1.65289        -0.77462         2.12191
   H        2.37635        -2.60364         3.54002
   H        2.23251        -4.96284         4.23248
   H        0.65467        -6.49086         3.11770
   H       -0.79681        -5.67005         1.30471
   H       -2.62477         0.92691        -2.15900
   H       -1.01318         2.82057         0.81473
   H       -1.56232         8.96036         0.83985
   H       -1.82969        11.27717         0.37331
   H       -3.21876        16.89747        -1.68071
   H       -5.34537        17.06732        -4.98096
   H       -5.54012        19.57285        -5.41293
   H       -4.47233        21.81446        -4.72541
   H       -3.15286        23.57324        -3.61558
   H       -1.37142        24.85458        -2.25306
   H        0.56535        24.41720        -0.53047
   H        0.84538        21.41189         0.04058
   H        4.15688        26.08995         2.66972
   H        5.08575        21.26809         3.65892
   H        6.18290        26.59992         4.54164
*
