# ORCA input file
# SCF done       -150.016115404360          0.000637011662
! CAM-B3LYP def2-SVP def2/J RIJCOSX Grid4 TightSCF
%maxcore 5000
%tddft
    Mode sTDDFT
    Ethresh 5.0
    maxcore 5000
end

%pal
  nprocs 6
  end
* xyz 0 1
   C       -0.99348         1.09753         3.64103
   N       -0.03038         1.32751         4.48165
   O       -0.45825         1.01011         5.70603
   C       -1.73140         0.56497         5.64487
   C       -2.39768         0.15657         6.86836
   O       -1.91235         0.17950         7.96952
   C       -2.14845         0.59576         4.31257
   C       -3.38006         0.23872         3.69113
   C       -3.64096         0.29371         2.33692
   C       -4.93693        -0.12025         2.02523
   C       -5.67679        -0.49483         3.16705
   S       -4.77146        -0.33874         4.60711
   C       -6.96352        -0.89671         2.76229
   C       -7.05290        -0.76958         1.35818
   C       -5.76695        -0.29287         0.85291
   C       -5.39416        -0.09997        -0.44724
   C       -6.23906        -0.31334        -1.55151
   N       -6.88242        -0.48357        -2.48730
   C       -4.07704         0.28543        -0.78387
   N       -2.99531         0.56008        -1.04577
   C       -8.28419        -1.14282         0.85064
   C       -9.16381        -1.57744         1.84974
   S       -8.41126        -1.49687         3.44597
   C      -10.47554        -2.06041         1.76995
   C      -11.26956        -2.15630         0.64683
   C      -12.58270        -2.68291         0.59022
   C      -13.15318        -2.65103        -0.65220
   C      -12.32244        -2.08576        -1.63588
   S      -10.78912        -1.61566        -0.94243
   C      -12.51757        -1.83912        -2.98816
   C      -13.57814        -2.13012        -3.86659
   C      -13.35986        -1.70269        -5.14814
   C      -12.12359        -1.04169        -5.34405
   S      -11.24747        -0.99523        -3.82961
   C      -11.58864        -0.56505        -6.52309
   C      -10.35873         0.10506        -6.61252
   C       -9.63337         0.71090        -5.58495
   C       -8.39255         1.15211        -5.99878
   C       -8.14104         0.92189        -7.36638
   S       -9.47585         0.17493        -8.14227
   C       -6.83147         1.36342        -7.64770
   C       -6.24564         1.85640        -6.45819
   C       -7.20752         1.73692        -5.38351
   C       -7.06505         2.04440        -4.06276
   C       -5.86163         2.49455        -3.47952
   N       -4.91165         2.83701        -2.93656
   C       -8.12726         1.92728        -3.13852
   N       -8.97993         1.88582        -2.37198
   C       -4.94354         2.32074        -6.64363
   C       -4.52608         2.17985        -7.95086
   S       -5.76940         1.46176        -8.97792
   C       -3.27470         2.51235        -8.54098
   C       -2.15030         3.16565        -8.02853
   O       -1.20836         3.21714        -9.00188
   N       -1.66986         2.63422       -10.11448
   C       -2.87535         2.21386        -9.87698
   C       -1.80880         3.79286        -6.76838
   O       -2.52491         3.88426        -5.80133
   H       -0.85653         1.28826         2.59666
   H       -3.43334        -0.19388         6.69637
   H       -2.91801         0.62043         1.61285
   H       -8.53693        -1.11030        -0.19218
   H      -10.91742        -2.39585         2.69959
   H      -13.06811        -3.06998         1.46880
   H      -14.14326        -3.00658        -0.87544
   H      -14.46121        -2.65299        -3.54479
   H      -14.05486        -1.84219        -5.95751
   H      -12.11791        -0.78034        -7.44116
   H      -10.01709         0.86788        -4.59619
   H       -4.31927         2.74552        -5.87741
   H       -3.43959         1.71064       -10.63633
   H       -0.78715         4.21129        -6.78224
*
