# ORCA input file
# SCF done       -178.918421959292          0.000991475409
! CAM-B3LYP def2-SVP def2/J RIJCOSX Grid4 TightSCF
%maxcore 5000
%tddft
    Mode sTDDFT
    Ethresh 5.0
    maxcore 5000
end

%pal
  nprocs 6
  end
* xyz 0 1
   C        1.01406        -3.32048        -2.91818
   C       -0.30515        -3.16387        -3.24925
   C       -0.94709        -2.23170        -4.17000
   O       -2.14698        -2.23225        -4.34123
   C       -0.02167        -1.27753        -4.88868
   S       -1.31253        -4.29756        -2.39551
   C        0.05254        -4.95713        -1.61882
   C        1.23952        -4.35368        -1.97545
   C        2.51201        -4.76788        -1.43651
   C        3.69057        -4.17740        -1.69014
   C        4.98275        -4.57626        -1.17405
   C        6.08500        -3.74329        -1.42276
   C        7.32559        -4.08692        -0.94496
   C        7.50243        -5.27640        -0.21906
   C        6.42420        -6.11666         0.02549
   C        5.18021        -5.76033        -0.45111
   C        8.88769        -5.37471         0.17364
   C        9.57528        -4.24196        -0.30640
   C        8.64657        -3.36573        -1.11861
   C        8.59658        -1.92443        -0.59156
   C        8.11788        -1.85322         0.85418
   C        8.98785        -3.41220        -2.62680
   C       10.36483        -2.88941        -3.01423
   C       10.89629        -4.05594         0.01133
   C       11.58200        -5.02189         0.77696
   C       10.88379        -6.16386         1.21396
   C        9.54847        -6.33742         0.92722
   C       12.96414        -4.80275         1.07898
   C       13.75898        -5.65230         1.78905
   C       15.11570        -5.44392         2.07475
   C       15.84907        -6.36524         2.79158
   C       17.21102        -6.34111         3.16483
   C       17.61450        -7.44062         3.87228
   C       16.58742        -8.37949         4.08957
   S       15.09793        -7.83854         3.37924
   C       16.59464        -9.60603         4.74619
   C       17.63318       -10.29765         5.38351
   C       17.22529       -11.49881         5.89784
   C       15.85937       -11.80198         5.68891
   S       15.09127       -10.50707         4.81774
   C       15.28002       -12.98081         6.12993
   C       13.97896       -13.48142         6.03789
   C       12.85645       -12.85046         5.42334
   C       11.55051       -13.47627         5.39716
   N       10.50290       -12.80555         4.87372
   C       10.70770       -11.64491         4.30888
   C       12.00804       -11.05706         4.26057
   N       13.02435       -11.66828         4.84999
   C       12.18530        -9.82121         3.61347
   N       12.24251        -8.81020         3.06966
   C        9.61185       -10.95571         3.73115
   N        8.75293       -10.38006         3.23670
   C       11.32679       -14.75600         5.91172
   C       12.42408       -15.40342         6.50496
   C       13.71979       -14.77557         6.57877
   N       14.61729       -15.55717         7.16760
   S       13.91383       -16.95092         7.57601
   N       12.43327       -16.62916         7.03086
   C       10.02525       -15.39224         5.80272
   C        9.29680       -15.41425         4.63033
   C        9.70880       -14.93961         3.30834
   O       10.87539       -14.83173         2.99129
   C        8.57819       -14.59607         2.37264
   S        7.76687       -16.19870         4.86296
   C        8.12714       -16.50615         6.50483
   C        9.34779       -16.02406         6.88925
   C        9.86798       -16.07886         8.24574
   C        9.55773       -17.01120         9.13572
   H        1.79973        -2.72056        -3.33897
   H        0.50997        -0.66227        -4.16625
   H       -0.60490        -0.64043        -5.54769
   H        0.70630        -1.83544        -5.47307
   H       -0.07281        -5.76586        -0.92469
   H        2.46069        -5.62111        -0.77485
   H        3.71178        -3.30587        -2.33183
   H        5.94173        -2.82904        -1.98199
   H        6.55780        -7.03393         0.57845
   H        4.34373        -6.41647        -0.26826
   H        7.92792        -1.33840        -1.22593
   H        9.59259        -1.48452        -0.65768
   H        7.11170        -2.25575         0.94719
   H        8.10896        -0.82077         1.19658
   H        8.77603        -2.42641         1.50367
   H        8.22592        -2.83584        -3.15677
   H        8.90287        -4.45118        -2.95621
   H       10.50188        -1.85830        -2.69891
   H       10.47167        -2.92695        -4.09641
   H       11.14860        -3.50211        -2.57764
   H       11.42705        -3.16926        -0.30431
   H       11.38826        -6.91810         1.79505
   H        9.02507        -7.20893         1.28982
   H       13.39822        -3.88440         0.69940
   H       13.33623        -6.57144         2.17042
   H       15.60900        -4.54608         1.72586
   H       17.85513        -5.52009         2.90184
   H       18.61473        -7.59503         4.23682
   H       18.63813        -9.91862         5.45095
   H       17.87190       -12.18110         6.42202
   H       15.95994       -13.65341         6.64161
   H        8.02939       -13.74798         2.77953
   H        7.89102       -15.43436         2.28042
   H        8.97561       -14.33245         1.39604
   H        7.40096       -17.00459         7.11611
   H       10.55298       -15.28358         8.50796
   H        8.90300       -17.83178         8.89669
   H        9.96484       -16.99716        10.13176
*
