# ORCA input file
# SCF done       -200.839086028882          0.000908717514
! CAM-B3LYP def2-SVP def2/J RIJCOSX Grid4 TightSCF
%maxcore 5000
%tddft
    Mode sTDDFT
    Ethresh 5.0
    maxcore 5000
end

%pal
  nprocs 6
  end
* xyz 0 1
   C       -4.35442        -1.11722        -2.82768
   C       -4.07230        -2.09231        -1.90853
   C       -3.68179        -3.40654        -2.24320
   N       -3.35583        -4.48628        -2.45527
   C       -4.16980        -1.93481        -0.50906
   N       -4.25463        -1.89428         0.63499
   C       -4.37145        -1.28020        -4.27360
   C       -4.83944        -0.07871        -4.86521
   C       -4.97726         0.06976        -6.22490
   C       -4.64680        -1.01740        -7.03887
   C       -4.17608        -2.21154        -6.43923
   C       -4.03025        -2.36101        -5.06561
   S       -3.82184        -3.41768        -7.63459
   C       -4.29975        -2.33972        -8.89921
   C       -4.70566        -1.12943        -8.45630
   C       -5.10685         0.91993        -3.81787
   O       -5.40238         2.08262        -3.98533
   C       -4.79624         0.23534        -2.52791
   C       -4.76891         0.84739        -1.31787
   C       -5.39200         2.10188        -1.01990
   C       -4.79414         3.00400        -0.11533
   C       -5.38747         4.28016         0.18698
   N       -4.76336         5.12301         1.02154
   C       -3.61901         4.77872         1.55344
   C       -3.03050         3.50296         1.25394
   N       -3.61716         2.66469         0.44044
   C       -1.79189         3.14688         1.84772
   N       -0.78656         2.90480         2.33921
   C       -2.97227         5.68171         2.43418
   N       -2.43034         6.39815         3.14433
   C       -6.61496         4.68753        -0.38335
   C       -7.24756         3.75843        -1.23004
   C       -6.64652         2.47650        -1.53279
   N       -7.44727         1.72729        -2.29442
   S       -8.76851         2.56378        -2.63138
   N       -8.43711         3.89324        -1.81763
   C       -7.18393         5.96217        -0.10178
   S       -6.49512         7.08680         1.06362
   C       -7.84729         8.12322         0.65968
   N       -8.63173         7.59754        -0.24686
   N       -8.27085         6.42091        -0.65695
   C       -8.08686         9.40441         1.26279
   C       -9.17327        10.17034         0.81125
   C       -9.41726        11.38584         1.39832
   C       -8.60015        11.85316         2.44464
   C       -7.52197        11.09893         2.89190
   C       -7.27043         9.88078         2.29599
   C       -9.08771        13.14876         2.86069
   C      -10.19963        13.48830         2.06565
   C      -10.53653        12.36365         1.11438
   C      -10.54420        12.82048        -0.35199
   C       -9.21671        13.44004        -0.77393
   C      -11.85916        11.65819         1.50120
   C      -13.10494        12.53435         1.50489
   C      -10.80367        14.71324         2.20367
   C      -10.34790        15.60751         3.18580
   C       -9.26646        15.23235         3.99860
   C       -8.62275        14.02468         3.83290
   C      -10.93674        16.90513         3.38738
   C      -11.91510        17.47348         2.64624
   C      -12.51099        18.73741         2.90731
   C      -12.06096        19.81442         3.60650
   C      -10.77148        20.21043         4.13486
   C       -9.53916        19.89435         3.62329
   C       -8.32423        20.39648         4.13195
   N       -7.30636        20.76129         4.51765
   C       -9.34346        19.08240         2.48899
   N       -9.13147        18.44284         1.55990
   C      -11.01672        21.21612         5.16410
   C      -12.37835        21.60967         5.10266
   C      -13.06322        20.82052         4.06451
   O      -14.20821        20.91975         3.68586
   C      -12.90690        22.56836         5.93301
   C      -12.05795        23.15558         6.87593
   C      -10.70439        22.74511         6.93922
   C      -10.16565        21.78321         6.09247
   S       -9.84907        23.59222         8.18911
   C      -11.27859        24.47341         8.60430
   C      -12.35104        24.15315         7.84824
   H       -5.33371         0.99710        -6.64587
   H       -3.66051        -3.28670        -4.65712
   H       -4.24574        -2.68420        -9.91366
   H       -5.03701        -0.33350        -9.09824
   H       -4.22077         0.40288        -0.49680
   H       -9.78277         9.78037         0.01183
   H       -6.89109        11.45711         3.69088
   H       -6.43776         9.27778         2.62847
   H      -11.33917        13.55311        -0.49544
   H      -10.76186        11.95807        -0.98508
   H       -8.99166        14.31755        -0.17167
   H       -9.26135        13.74298        -1.81722
   H       -8.40425        12.72595        -0.65844
   H      -11.73167        11.22992         2.49903
   H      -12.00558        10.83061         0.80425
   H      -13.03880        13.30177         2.27155
   H      -13.97485        11.91792         1.72074
   H      -13.26124        13.00776         0.53941
   H      -11.62007        14.99419         1.55928
   H       -8.91807        15.92231         4.75389
   H       -7.77269        13.76708         4.44623
   H      -10.56286        17.44693         4.24788
   H      -12.35725        16.92125         1.82913
   H      -13.53095        18.85250         2.54837
   H      -13.94465        22.85410         5.85820
   H       -9.13040        21.49774         6.18217
   H      -11.22575        25.18764         9.40288
   H      -13.32327        24.59721         7.96281
*
