# ORCA input file
# SCF done       -229.630356009948          0.000590887210
! CAM-B3LYP def2-SVP def2/J RIJCOSX Grid4 TightSCF
%maxcore 5000
%tddft
    Mode sTDDFT
    Ethresh 5.0
    maxcore 5000
end

%pal
  nprocs 6
  end
* xyz 0 1
   C       -9.90118        -0.69292        -4.92400
   C      -10.09593        -1.91160        -4.32542
   C      -10.26543        -3.11854        -5.03400
   N      -10.40178        -4.13241        -5.55562
   C      -10.20066        -2.12891        -2.93541
   N      -10.32290        -2.39061        -1.82364
   C       -9.91298        -0.44638        -6.35916
   C       -9.86345         0.95118        -6.57362
   C       -9.86293         1.50945        -7.82850
   C       -9.91049         0.64452        -8.92673
   C       -9.95540        -0.75190        -8.70291
   C       -9.95860        -1.31595        -7.43335
   S      -10.00192        -1.63741       -10.19797
   C       -9.96263        -0.13948       -11.09007
   C       -9.91693         0.96723       -10.31159
  Br       -9.98531        -0.17852       -12.96552
   C       -9.80605         1.65455        -5.27436
   O       -9.77147         2.85821        -5.13126
   C       -9.74180         0.58472        -4.24773
   C       -9.36603         0.70593        -2.94069
   C       -9.21975         1.87165        -2.12448
   C       -9.95408         3.05296        -2.32935
   C       -9.75705         4.12546        -1.49666
   C       -8.79152         4.06454        -0.47360
   C       -8.08371         2.88915        -0.23648
   C       -8.32170         1.80062        -1.04143
   C       -8.73215         5.34355         0.18307
   C       -9.67220         6.20515        -0.41634
   C      -10.39418         5.49965        -1.54831
   C      -10.05484         6.10768        -2.92694
   C      -10.57834         7.51384        -3.18765
   C      -11.90125         5.47881        -1.22220
   C      -12.79079         4.73767        -2.21219
   C       -9.85450         7.47413         0.07292
   C       -9.06277         7.93761         1.14014
   C       -8.10798         7.06918         1.70147
   C       -7.94325         5.78395         1.23976
   C       -9.17281         9.25881         1.68587
   C       -9.93889        10.27956         1.21317
   C      -10.00301        11.59339         1.72440
   C       -9.38495        12.14071         2.82333
   C       -9.45978        13.50841         3.19801
   C       -8.74255        13.83893         4.30784
   C       -8.06783        12.74767         4.89391
   S       -8.37950        11.28655         3.97969
   C       -7.24530        12.71375         6.00177
   C       -6.79044        13.77145         6.81884
   C       -5.94589        13.37519         7.81138
   C       -5.69164        11.97930         7.85212
   S       -6.58247        11.19332         6.55951
   C       -4.86472        11.33738         8.73781
   C       -4.62603         9.95137         8.82550
   C       -5.23035         8.90899         8.16147
   C       -4.75199         7.63750         8.52634
   C       -3.69944         7.71059         9.47822
   S       -3.39531         9.36536         9.94356
   C       -3.05285         6.59373         9.97254
   C       -1.98944         6.66729        10.98291
   C       -2.04770         5.87722        12.12979
   C       -1.02864         5.91423        13.05865
   C        0.07568         6.74006        12.87560
   C        0.12120         7.54089        11.74288
   C       -0.89623         7.50882        10.80747
   C        1.17977         6.75347        13.88759
   C       -3.46835         5.34870         9.45731
   C       -4.52604         5.27577         8.51095
   C       -5.19945         6.38943         8.04524
   C       -6.34453         6.30070         7.12969
   C       -7.53648         6.95649         7.43516
   C       -8.61982         6.87655         6.58517
   C       -8.55436         6.13732         5.40862
   C       -7.36880         5.47994         5.11077
   C       -6.27717         5.55773         5.95591
   C       -9.74457         6.05995         4.50277
   S       -4.86192         3.61880         8.07948
   C       -3.57942         3.03830         9.13876
   C       -2.94439         4.07964         9.77115
   C       -3.35686         1.64825         9.23022
   C       -2.49318         0.99691        10.06727
   C       -2.32010        -0.41424        10.12696
   C       -1.42558        -0.83812        11.05514
   C       -0.82409         0.21077        11.79622
   S       -1.44705         1.75951        11.25583
   C        0.11113         0.11868        12.79653
   C        0.70209        -1.06356        13.32513
   C        1.60162        -0.84571        14.30883
   C        1.79631         0.53729        14.64054
   S        0.75106         1.53284        13.61353
   C        2.62065         1.04962        15.56394
   H       -9.82526         2.57970        -7.95862
   H       -9.98733        -2.38616        -7.31493
   H       -9.88773         1.97064       -10.69557
   H       -9.07907        -0.21384        -2.44199
   H      -10.66868         3.09727        -3.13099
   H       -7.36226         2.83369         0.56481
   H       -7.78439         0.87865        -0.87066
   H      -10.43247         5.43417        -3.69706
   H       -8.96537         6.11602        -3.01886
   H      -11.65937         7.56263        -3.08599
   H      -10.32277         7.80658        -4.20395
   H      -10.12484         8.23192        -2.50992
   H      -12.24152         6.51273        -1.14306
   H      -12.01844         5.02474        -0.23407
   H      -12.64408         5.09916        -3.22613
   H      -13.83428         4.89358        -1.94472
   H      -12.59650         3.66926        -2.18753
   H      -10.61087         8.11931        -0.34363
   H       -7.50110         7.42529         2.52152
   H       -7.21263         5.12728         1.68818
   H       -8.54025         9.44017         2.54277
   H      -10.55036        10.10988         0.33668
   H      -10.61533        12.28812         1.16167
   H      -10.03743        14.20987         2.62141
   H       -8.68515        14.83026         4.72092
   H       -7.08528        14.79088         6.64426
   H       -5.49217        14.04190         8.52372
   H       -4.33446        11.96185         9.44502
   H       -6.00441         9.03929         7.43013
   H       -2.90624         5.24327        12.29738
   H       -1.08429         5.28880        13.93809
   H        0.96790         8.19349        11.58324
   H       -0.83056         8.12228         9.92088
   H        1.56582         5.74584        14.03630
   H        0.80905         7.11240        14.84739
   H        1.99521         7.39768        13.56852
   H       -7.61707         7.51038         8.35926
   H       -9.53646         7.39022         6.83791
   H       -7.29890         4.89546         4.20494
   H       -5.35901         5.05168         5.69601
   H       -9.97537         7.04457         4.09641
   H      -10.61797         5.71539         5.05495
   H       -9.56467         5.38129         3.67297
   H       -2.10486         3.94955        10.42700
   H       -3.95520         1.02643         8.57677
   H       -2.87389        -1.06597         9.47401
   H       -1.18067        -1.87009        11.23219
   H        0.43428        -2.03604        12.95125
   H        2.14821        -1.61452        14.82569
   H        3.23895         0.40619        16.16458
   H        2.69394         2.10816        15.73329
*
