# ORCA input file
# SCF done       -221.821590148819          0.000619428318
! CAM-B3LYP def2-SVP def2/J RIJCOSX Grid4 TightSCF
%maxcore 5000
%tddft
    Mode sTDDFT
    Ethresh 5.0
    maxcore 5000
end

%pal
  nprocs 6
  end
* xyz 0 1
   C       -3.05501        -1.15370         0.16153
   C       -3.84965        -2.16794        -0.30693
   C       -3.38834        -3.47107        -0.58673
   N       -3.07473        -4.54982        -0.82316
   C       -5.22749        -2.05197        -0.58555
   N       -6.34589        -2.03017        -0.84558
   C       -1.61629        -1.23268         0.38441
   C       -1.14694         0.03889         0.79562
   C        0.17458         0.28570         1.07562
   C        1.08016        -0.77126         0.93494
   C        0.60200        -2.03960         0.52758
   C       -0.73582        -2.29071         0.25043
   S        1.88768        -3.20443         0.42501
   C        3.03407        -1.98788         0.92083
   C        2.48508        -0.77168         1.15233
  Br        4.84696        -2.43798         1.08626
   C       -2.28175         0.97964         0.87975
   O       -2.25443         2.10440         1.32897
   C       -3.47094         0.20456         0.44956
   C       -4.75173         0.67269         0.50189
   C       -5.11576         2.03623         0.57895
   S       -6.61417         2.49463         1.34345
   C       -6.34763         4.17156         1.04077
   C       -5.16487         4.37611         0.34514
   C       -4.48137         3.15588         0.04253
   O       -3.41217         3.08029        -0.72556
   C       -4.48816         5.64107         0.01515
   O       -3.60775         5.68367        -0.81859
   O       -4.81385         6.74148         0.69673
   C       -7.35732         5.13238         1.44707
   C       -7.67722         6.22022         0.61875
   C       -8.62845         7.12042         1.03413
   C       -9.29137         6.94843         2.26263
   C       -9.00746         5.85283         3.06694
   C       -8.04639         4.95293         2.65225
   C      -10.21342         8.04802         2.44145
   C      -10.11471         8.89988         1.32521
   C       -9.10660         8.36826         0.33466
   C       -7.94704         9.36018         0.11650
   C       -7.28094         9.79511         1.41636
   C       -9.76596         8.03870        -1.01836
   C      -10.90878         7.03805        -0.89487
   C      -10.86933        10.04258         1.25519
   C      -11.75074        10.36560         2.30498
   C      -11.84568         9.49506         3.40482
   C      -11.08747         8.34677         3.47990
   C      -12.49101        11.59075         2.20073
   C      -13.40633        12.05799         3.08670
   C      -14.11028        13.29163         3.00533
   C      -13.89942        14.33030         2.05778
   C      -14.71767        15.51746         2.04167
   N      -14.46783        16.49262         1.14971
   C      -13.50337        16.34094         0.28148
   C      -12.71091        15.14718         0.27273
   N      -12.91457        14.20357         1.15871
   C      -11.67199        14.96806        -0.67417
   N      -10.83786        14.82378        -1.44581
   C      -13.21926        17.38032        -0.64196
   N      -12.94962        18.18827        -1.40718
   C      -15.81825        15.69757         2.91104
   C      -15.98685        14.70312         3.89516
   C      -15.13533        13.54047         3.94649
   N      -15.46013        12.73780         4.96314
   S      -16.68562        13.37461         5.76847
   N      -16.88555        14.69953         4.88316
   C      -16.63179        16.86038         2.78668
   C      -17.92046        17.05776         3.16770
   C      -18.97269        16.15378         3.57647
   C      -19.10933        14.84205         3.20278
   C      -20.17325        14.01175         3.60799
   N      -20.99591        13.28084         3.93495
   C      -18.22622        14.17820         2.32991
   N      -17.54585        13.59393         1.61240
   C      -19.98646        16.94710         4.26016
   C      -19.68814        18.32205         4.08096
   C      -18.42950        18.45247         3.31955
   O      -17.89327        19.46529         2.93896
   C      -20.48959        19.32122         4.57733
   C      -21.63255        18.94691         5.29214
   C      -21.91355        17.57149         5.47770
   C      -21.10782        16.56029         4.96909
   S      -23.36749        17.33514         6.39829
   C      -23.57944        19.06229         6.51559
   C      -22.61063        19.78083         5.89967
  Br      -25.05648        19.75147         7.44216
   H        0.50100         1.26541         1.38726
   H       -1.05131        -3.27549        -0.05120
   H        3.04598         0.09053         1.46373
   H       -5.57358        -0.03238         0.51588
   H       -3.15795         3.99763        -0.99391
   H       -5.52372         6.59674         1.33962
   H       -7.19874         6.32629        -0.34388
   H       -9.52415         5.70457         4.00235
   H       -7.80200         4.09939         3.26662
   H       -8.33292        10.23951        -0.40171
   H       -7.20381         8.89122        -0.53079
   H       -7.98444        10.32715         2.05290
   H       -6.44567        10.45573         1.19994
   H       -6.90184         8.93694         1.96726
   H       -9.00346         7.63899        -1.68957
   H      -10.14150         8.96554        -1.45533
   H      -10.55512         6.09250        -0.48931
   H      -11.34387         6.84928        -1.87307
   H      -11.68906         7.42150        -0.24107
   H      -10.79313        10.70677         0.40663
   H      -12.52032         9.73219         4.21209
   H      -11.16864         7.69257         4.33481
   H      -12.27791        12.18783         1.32571
   H      -13.68614        11.46644         3.94799
   H      -16.13337        17.72555         2.35977
   H      -20.24451        20.35961         4.41841
   H      -21.35796        15.52609         5.13888
   H      -22.58509        20.85489         5.87385
*
