# ORCA input file
# SCF done       -211.322912038275          0.000710136101
! CAM-B3LYP def2-SVP def2/J RIJCOSX Grid4 TightSCF
%maxcore 5000
%tddft
    Mode sTDDFT
    Ethresh 5.0
    maxcore 5000
end

%pal
  nprocs 6
  end
* xyz 0 1
   C      -24.42514        -2.05870         4.90414
   C      -23.96484        -1.78302         6.16823
   C      -24.79806        -1.60712         7.29198
   N      -25.41980        -1.45041         8.24479
   C      -22.61346        -1.64260         6.54417
   N      -21.54197        -1.51504         6.94014
   C      -25.83092        -2.21658         4.53974
   C      -25.91072        -2.52638         3.15985
   C      -27.10311        -2.73232         2.51116
   C      -28.27947        -2.62377         3.26102
   C      -28.19184        -2.31252         4.63801
   C      -26.98369        -2.10715         5.29402
   S      -29.76335        -2.22201         5.37412
   C      -30.50617        -2.59809         3.84226
   C      -29.62529        -2.78298         2.83068
  Br      -32.37469        -2.71062         3.72289
   C      -24.54831        -2.56995         2.59802
   O      -24.25534        -2.82092         1.44165
   C      -23.64034        -2.25287         3.70279
   C      -22.27533        -2.12761         3.60413
   C      -21.42759        -2.25489         2.49775
   S      -21.89402        -2.67179         0.85022
   C      -20.25475        -2.52390         0.33948
   C      -19.39662        -2.16895         1.40240
   C      -20.05070        -2.02638         2.60598
   S      -17.73232        -1.98127         0.90832
   C      -18.18797        -2.36464        -0.72883
   C      -17.47171        -2.43723        -1.91423
   C      -18.28009        -2.77456        -2.99331
   S      -19.95579        -3.01586        -2.49835
   C      -19.56089        -2.63816        -0.86268
   C      -17.96783        -2.92053        -4.35527
   C      -16.77907        -2.63887        -4.98132
   C      -16.53528        -2.76965        -6.37392
   C      -15.29997        -2.36234        -6.77402
   C      -14.48657        -1.88704        -5.72112
   S      -15.34720        -2.00102        -4.19831
   C      -13.21383        -1.36058        -5.77761
   C      -12.39600        -1.14068        -6.91246
   C      -11.20879        -0.54738        -6.62681
   C      -11.00110        -0.25956        -5.24570
   S      -12.39687        -0.81989        -4.32944
   C       -9.93507         0.42183        -4.73740
   C       -9.67256         0.78855        -3.37697
   C       -8.79883         1.86745        -3.13402
   C       -8.59218         2.30852        -1.85113
   C       -9.17689         1.61952        -0.77108
   C       -9.99360         0.51771        -0.99035
   C      -10.24946         0.12272        -2.28400
   C       -8.76905         2.25045         0.45838
   C       -7.94124         3.34609         0.15091
   C       -7.74367         3.46206        -1.34911
   C       -6.28422         3.19627        -1.77423
   C       -5.25408         4.21074        -1.29530
   C       -8.28653         4.83743        -1.79117
   C       -8.22884         5.14002        -3.28288
   C       -7.50674         4.17316         1.15718
   C       -7.83886         3.89102         2.49464
   C       -8.62304         2.76319         2.78162
   C       -9.09934         1.95380         1.77562
   C       -7.42415         4.81370         3.51460
   C       -7.48865         4.62284         4.85394
   C       -7.08853         5.57271         5.82893
   C       -7.02527         6.93318         5.76144
   C       -7.54500         7.91255         4.83054
   C       -8.66091         7.79753         4.04098
   C       -9.14989         8.82846         3.21392
   N       -9.57813         9.62302         2.50391
   C       -9.50068         6.66666         4.00876
   N      -10.24562         5.79470         3.96146
   C       -6.82506         9.16178         5.06816
   C       -6.06050         9.02925         6.25391
   C       -6.21379         7.65687         6.77682
   O       -5.74624         7.19590         7.79339
   C       -5.30951        10.05823         6.76758
   C       -5.30243        11.27162         6.07148
   C       -6.05407        11.38797         4.87812
   C       -6.82091        10.35007         4.36292
   S       -5.89278        12.96778         4.17259
   C       -4.83726        13.44599         5.47577
   C       -4.61365        12.47398         6.39134
  Br       -4.12853        15.18246         5.50148
   H      -27.12877        -2.96713         1.45863
   H      -26.97267        -1.87094         6.34468
   H      -29.91054        -3.02101         1.82224
   H      -21.74480        -1.86966         4.51257
   H      -19.57925        -1.76093         3.53492
   H      -16.41556        -2.26285        -1.98440
   H      -18.77307        -3.26481        -4.99125
   H      -17.29186        -3.15404        -7.03499
   H      -14.95516        -2.38402        -7.79226
   H      -12.71609        -1.41333        -7.90215
   H      -10.46542        -0.29239        -7.36173
   H       -9.22375         0.78783        -5.46882
   H       -8.32264         2.34656        -3.97625
   H      -10.42339        -0.02117        -0.15992
   H      -10.87047        -0.74158        -2.45516
   H       -6.25400         3.14464        -2.86387
   H       -6.00743         2.20819        -1.39603
   H       -5.50513         5.21650        -1.62151
   H       -4.27999         3.95613        -1.70818
   H       -5.17115         4.19950        -0.21215
   H       -7.73031         5.60709        -1.25369
   H       -9.32626         4.90067        -1.45906
   H       -7.21791         5.04489        -3.67056
   H       -8.55915         6.16290        -3.45204
   H       -8.88742         4.48122        -3.84135
   H       -6.92149         5.05568         0.94382
   H       -8.89564         2.55232         3.80301
   H       -9.73400         1.11119         2.00390
   H       -6.98995         5.73872         3.15133
   H       -7.78496         3.65823         5.24118
   H       -6.72624         5.16447         6.76870
   H       -4.74594         9.93223         7.67862
   H       -7.37378        10.48500         3.44810
   H       -3.98940        12.59719         7.25741
*
