# ORCA input file
# SCF done       -181.518560435444          0.000567549131
! CAM-B3LYP def2-SVP def2/J RIJCOSX Grid4 TightSCF
%maxcore 5000
%tddft
    Mode sTDDFT
    Ethresh 5.0
    maxcore 5000
end

%pal
  nprocs 6
  end
* xyz 0 1
   C       -7.48654        14.74755       -12.91516
   C       -7.32087        16.10568       -13.00291
   C       -7.24018        16.81844       -14.21641
   N       -7.16904        17.44950       -15.17268
   C       -7.21460        16.96360       -11.88930
   N       -7.12854        17.69850       -11.01152
   C       -7.60764        13.82737       -14.04362
   C       -7.77292        12.50827       -13.54649
   C       -7.91749        11.41962       -14.37234
   C       -7.89898        11.63990       -15.75369
   C       -7.73340        12.95842       -16.23976
   C       -7.58639        14.06027       -15.40441
   S       -7.74158        13.00589       -17.97528
   C       -7.96445        11.27744       -18.02591
   C       -8.02948        10.69284       -16.80556
  Br       -8.09337        10.40796       -19.68257
   C       -7.76231        12.55222       -12.07940
   O       -7.89443        11.60624       -11.30315
   C       -7.57836        13.95466       -11.71172
   C       -7.52400        14.36089       -10.39782
   N       -7.62667        13.47118        -9.40798
   C       -7.56806        13.72709        -8.07189
   S       -7.14705        15.31597        -7.49740
   C       -7.20375        14.72015        -5.87435
   N       -6.92900        15.61846        -4.83188
   O       -6.96755        15.18937        -3.69490
   O       -6.67026        16.76470        -5.14997
   C       -7.52783        13.39415        -5.78922
   C       -7.76221        12.79644        -7.04627
   C       -8.12943        11.40771        -7.14249
   C       -8.73760        10.78155        -8.16751
   N       -9.02717         9.44644        -8.20456
   C       -9.02089         8.57207        -7.11292
   C       -9.52204         8.83789        -5.87481
   S       -9.34853         7.50835        -4.80886
   C       -8.60017         6.56405        -6.03607
   C       -8.47914         7.24157        -7.21581
   N       -7.88834         6.85520        -8.40321
   C       -7.43120         5.63402        -8.82169
   C       -7.63345         4.43063        -8.25133
   C       -7.09456         3.21243        -8.78028
   C       -6.73627         2.92464       -10.06350
   C       -6.38031         1.52639       -10.14003
   C       -5.93889         0.88854       -11.30441
   N       -5.58644         0.37737       -12.27113
   C       -6.55524         0.94250        -8.90960
   C       -6.96068         1.96389        -7.99373
   C       -7.01334         1.86403        -6.62206
   C       -7.11164         0.63281        -5.79970
   C       -6.83242         0.98525        -4.50529
   C       -6.59729         2.39969        -4.45295
   C       -6.75065         2.93237        -5.71469
   C       -6.26623         3.11843        -3.29792
   N       -6.00374         3.71652        -2.35306
   C       -7.55369        -0.65777        -6.19745
   C       -8.28854        -0.96024        -7.29607
   C       -8.68815        -2.27751        -7.66512
   C       -9.48844        -2.57223        -8.81315
   C       -9.67185        -3.94498        -8.89975
   C      -10.36460        -4.74024        -9.83081
   C      -10.35593        -6.09987        -9.63755
   C      -10.94168        -7.17056       -10.37559
   C      -10.62980        -8.37102        -9.75324
   C       -9.83824        -8.07731        -8.60532
   C       -9.66004        -6.69913        -8.51679
   C       -8.96831        -5.90938        -7.58789
   C       -8.97464        -4.54463        -7.77960
   C       -8.37951        -3.48781        -7.04294
   C      -11.04681        -9.67469       -10.21122
   C      -10.75212       -10.83182        -9.62487
   H       -8.04121        10.42696       -13.96859
   H       -7.46306        15.04481       -15.82330
   H       -8.16393         9.63752       -16.65355
   H       -7.40726        15.40022       -10.12061
   H       -7.70415        12.49313        -9.72404
   H       -7.60495        12.87799        -4.84929
   H       -7.90498        10.83418        -6.25520
   H       -9.03571        11.29585        -9.06811
   H       -9.43506         9.09417        -9.05742
   H       -9.99198         9.73919        -5.53751
   H       -8.26548         5.58487        -5.77142
   H       -7.66729         7.63503        -9.00665
   H       -6.83767         5.69677        -9.72370
   H       -8.24177         4.33909        -7.36798
   H       -6.73959         3.58573       -10.90948
   H       -6.30833        -0.06847        -8.65034
   H       -6.82741         0.33658        -3.64931
   H       -6.52775         3.94485        -5.99170
   H       -7.32834        -1.44732        -5.49142
   H       -8.61900        -0.16548        -7.95178
   H       -9.87305        -1.83473        -9.49518
   H      -10.88020        -4.28690       -10.66577
   H      -11.52770        -7.05702       -11.26957
   H       -9.44204        -8.80301        -7.91893
   H       -8.44931        -6.36203        -6.75457
   H       -7.78921        -3.61888        -6.15530
   H      -11.64888        -9.66939       -11.11139
   H      -10.15766       -10.88832        -8.72919
   H      -11.09905       -11.76891       -10.02407
*
