# ORCA input file
# SCF done       -208.677316972504          0.000734380485
! CAM-B3LYP def2-SVP def2/J RIJCOSX Grid4 TightSCF
%maxcore 5000
%tddft
    Mode sTDDFT
    Ethresh 5.0
    maxcore 5000
end

%pal
  nprocs 6
  end
* xyz 0 1
   C      -16.78982       -10.95089        -5.39369
   C      -15.62741       -11.35658        -4.77454
   C      -15.02817       -12.61562        -4.96624
   N      -14.48526       -13.62267        -5.07882
   C      -14.86900       -10.59889        -3.86175
   N      -14.18923       -10.06233        -3.10504
   C      -17.56545       -11.76518        -6.32956
   C      -18.70435       -11.02797        -6.73314
   C      -19.63110       -11.52076        -7.61696
   C      -19.42388       -12.80597        -8.13195
   C      -18.28396       -13.53390        -7.72372
   C      -17.34623       -13.03490        -6.82656
   S      -18.21739       -15.09711        -8.48274
   C      -19.70347       -14.75264        -9.32690
   C      -20.22420       -13.53318        -9.05631
  Br      -20.42680       -16.03717       -10.48867
   C      -18.68847        -9.70678        -6.06462
   O      -19.52587        -8.83222        -6.18899
   C      -17.46502        -9.69077        -5.24743
   C      -17.03777        -8.61274        -4.49172
   C      -17.70117        -7.40080        -4.36713
   C      -17.19078        -6.34699        -3.62653
   C      -17.77019        -5.07302        -3.44454
   C      -17.02096        -4.22096        -2.68217
   C      -15.81444        -4.78555        -2.22622
   S      -15.66263        -6.43801        -2.78547
   C      -14.81290        -4.20522        -1.46549
   C      -14.73114        -2.88663        -0.96325
   C      -13.58296        -2.63300        -0.27858
   C      -12.68697        -3.73434        -0.19065
   S      -13.39850        -5.11648        -1.01677
   C      -11.44465        -3.69171         0.38044
   C      -10.46735        -4.72559         0.49707
   C       -9.13533        -4.35432         0.78693
   C       -8.14795        -5.30427         0.82107
   C       -8.47925        -6.66472         0.65803
   C       -9.79385        -7.05363         0.42822
   C      -10.76911        -6.08919         0.33418
   C       -7.28321        -7.45355         0.77851
   C       -6.19169        -6.59380         1.00428
   C       -6.65861        -5.15017         1.07309
   C       -5.94173        -4.36845        -0.04711
   C       -6.30495        -2.89547        -0.18537
   C       -6.47918        -4.53919         2.47868
   C       -5.04235        -4.37206         2.95561
   C       -4.91626        -7.10082         1.05809
   C       -4.70768        -8.48512         0.93341
   C       -5.81878        -9.32708         0.76047
   C       -7.09718        -8.82649         0.67157
   C       -3.40096        -9.08485         0.93840
   C       -2.20684        -8.46171         1.04623
   C       -0.97092        -9.15723         0.97747
   O       -0.93306       -10.50067         0.78994
   C        0.35930       -10.88243         0.72864
   C        1.18420        -9.78095         0.88205
   C        0.33594        -8.67269         1.04211
   O        0.63014        -7.36435         1.22244
   C        2.00059        -7.03709         1.24889
   C        0.68993       -12.25399         0.51512
   C       -0.24724       -13.21608         0.39130
   C       -0.04031       -14.62244         0.15172
   C        1.23256       -15.18401        -0.03571
   C        1.35714       -16.52864        -0.29069
   C        0.21837       -17.35291        -0.30569
   C       -1.04598       -16.81567        -0.11355
   C       -1.16444       -15.45868         0.09931
   C        0.63681       -18.71902        -0.52791
   C        2.03468       -18.74641        -0.65707
   C        2.61313       -17.35058        -0.51587
   C        3.32298       -17.00017        -1.84015
   C        3.92360       -15.60344        -1.93471
   C        3.50497       -17.19964         0.73384
   C        4.79822       -18.00453         0.73915
   C        2.67113       -19.93267        -0.94114
   C        1.93491       -21.12045        -1.04276
   C        0.54741       -21.07528        -0.88215
   C       -0.10662       -19.88489        -0.63737
   C        2.65199       -22.35673        -1.32442
   C        2.15706       -23.58900        -1.29583
   H      -20.48916       -10.93408        -7.90570
   H      -16.49312       -13.63077        -6.54902
   H      -21.13390       -13.15903        -9.48945
   H      -16.10049        -8.70952        -3.95704
   H      -18.64587        -7.25990        -4.87143
   H      -18.71928        -4.82267        -3.88417
   H      -17.30652        -3.21195        -2.44322
   H      -15.51059        -2.16507        -1.13003
   H      -13.34167        -1.68400         0.16770
   H      -11.14299        -2.71872         0.75251
   H       -8.91674        -3.31050         0.95669
   H      -10.04743        -8.09714         0.32339
   H      -11.78920        -6.39561         0.17207
   H       -6.16143        -4.87493        -0.99094
   H       -4.86685        -4.45274         0.12055
   H       -7.33878        -2.77517        -0.49599
   H       -5.67349        -2.44102        -0.94638
   H       -6.14870        -2.35736         0.74590
   H       -7.01129        -5.18238         3.18510
   H       -6.97509        -3.56685         2.49135
   H       -4.55569        -5.33659         3.06794
   H       -5.04073        -3.88043         3.92655
   H       -4.46374        -3.76082         2.26807
   H       -4.06472        -6.45026         1.17582
   H       -5.65412       -10.39146         0.67400
   H       -7.93801        -9.48364         0.50874
   H       -3.38480       -10.16025         0.81676
   H       -2.11321        -7.39442         1.17556
   H        2.25486        -9.79675         0.87484
   H        2.04908        -5.95871         1.38883
   H        2.49112        -7.30566         0.30783
   H        2.51214        -7.53636         2.07798
   H        1.74637       -12.46721         0.45524
   H       -1.28189       -12.90892         0.47543
   H        2.10272       -14.55088         0.02831
   H       -1.92088       -17.44835        -0.12860
   H       -2.14346       -15.02414         0.24305
   H        2.59249       -17.12331        -2.64455
   H        4.11101       -17.73698        -2.00544
   H        3.14808       -14.84340        -1.90576
   H        4.45393       -15.50406        -2.87999
   H        4.63189       -15.41988        -1.13087
   H        2.90510       -17.49286         1.59993
   H        3.74471       -16.14132         0.85188
   H        4.59264       -19.07083         0.75818
   H        5.37124       -17.75844         1.63117
   H        5.41210       -17.77710        -0.12844
   H        3.73967       -19.97009        -1.09536
   H       -0.02837       -21.98320        -0.97206
   H       -1.18191       -19.86133        -0.53959
   H        3.70058       -22.22292        -1.56438
   H        1.13157       -23.80079        -1.04641
   H        2.77323       -24.44435        -1.51409
*
