# ORCA input file
# SCF done       -134.907420039757          0.000292444635
! CAM-B3LYP def2-SVP def2/J RIJCOSX Grid4 TightSCF
%maxcore 5000
%tddft
    Mode sTDDFT
    Ethresh 5.0
    maxcore 5000
end

%pal
  nprocs 6
  end
* xyz 0 1
   C       11.09932        -2.52712        -5.36527
   C       10.84969        -2.59778        -4.05015
   C       11.70743        -2.21564        -2.96782
   C       11.19128        -2.43216        -1.73564
   C        9.89087        -3.00203        -1.73476
   S        9.33213        -3.22431        -3.38631
   C        9.13601        -3.38824        -0.65085
   C        9.45776        -3.32736         0.72470
   C        8.50212        -3.85109         1.54160
   C        7.35898        -4.35966         0.87610
   S        7.55189        -4.11517        -0.85452
   C        6.28203        -4.96088         1.48600
   C        5.14031        -5.49266         0.87333
   S        3.88563        -6.24031         1.88895
   C        2.91815        -6.59023         0.49642
   C        3.57271        -6.13539        -0.67458
   C        4.80143        -5.53229        -0.47385
   N        2.77079        -6.40839        -1.72781
   C        1.62288        -7.02894        -1.28497
   C        1.71225        -7.15828         0.11886
   C        0.56898        -7.40679        -2.13570
   C        0.43346        -7.05298        -3.46235
   C       -0.55237        -7.46491        -4.38840
   C       -0.42519        -6.93373        -5.64612
   C        0.66047        -6.05466        -5.78958
   S        1.50808        -5.91786        -4.26622
   C        1.17787        -5.32682        -6.85103
   C        0.84501        -5.24061        -8.21267
   C        1.67537        -4.42228        -8.93265
   C        2.70467        -3.80828        -8.18251
   S        2.56135        -4.30797        -6.51220
   C        3.70810        -2.98277        -8.64549
   C        4.71393        -2.37896        -7.87960
   S        6.03471        -1.54000        -8.72334
   C        6.79133        -1.15156        -7.21881
   C        6.02224        -1.64197        -6.13436
   C        4.87271        -2.32353        -6.49675
   N        6.65147        -1.27531        -4.99160
   C        7.81041        -0.59399        -5.30629
   C        7.90600        -0.50731        -6.70828
   C        8.63581        -0.11269        -4.27754
   C        9.88828         0.43420        -4.38132
   C       10.68923         0.86440        -3.29308
   C       11.93460         1.28571        -3.63928
   C       12.19819         1.21333        -5.02816
   S       10.78175         0.61740        -5.87720
   C       13.36375         1.52382        -5.68758
   C       14.57307         2.01566        -5.12462
   C       15.56505         2.21866        -6.02057
   C       15.21584         1.90005        -7.37485
   S       13.54010         1.32806        -7.42210
   C       15.98762         1.99569        -8.46647
   H       12.04231        -2.15578        -5.72492
   H       10.37431        -2.83180        -6.09717
   H       12.67962        -1.79836        -3.16295
   H       11.70343        -2.20923        -0.81597
   H       10.38651        -2.91097         1.07199
   H        8.58371        -3.89789         2.61366
   H        6.32756        -5.03504         2.56488
   H        5.41596        -5.13882        -1.25941
   H        3.02896        -6.27708        -2.69008
   H        0.96569        -7.59496         0.75103
   H       -0.21165        -8.01419        -1.70072
   H       -1.32605        -8.15772        -4.10625
   H       -1.08822        -7.15482        -6.46409
   H        0.02006        -5.78791        -8.63397
   H        1.57793        -4.24775        -9.99015
   H        3.73567        -2.80351        -9.71218
   H        4.17384        -2.73120        -5.79367
   H        6.38498        -1.53977        -4.05843
   H        8.68257        -0.01786        -7.25870
   H        8.24814        -0.22147        -3.27155
   H       10.31588         0.83508        -2.28410
   H       12.67228         1.63319        -2.93841
   H       14.66196         2.20364        -4.06905
   H       16.54675         2.58649        -5.77979
   H       17.00178         2.34648        -8.39227
   H       15.62415         1.72771        -9.44135
*
