# ORCA input file
# SCF done       -228.499744488268          0.000348997278
! CAM-B3LYP def2-SVP def2/J RIJCOSX Grid4 TightSCF
%maxcore 5000
%tddft
    Mode sTDDFT
    Ethresh 5.0
    maxcore 5000
end

%pal
  nprocs 6
  end
* xyz 0 1
   C        0.70391        -0.77059        -2.21347
   C        0.48740         0.44958        -2.83516
   F        0.60476         1.57199        -2.11883
   C        0.15501         0.53346        -4.18880
   F       -0.05166         1.73242        -4.74443
   C        0.04143        -0.61027        -4.96227
   C        0.26705        -1.82635        -4.34695
   C        0.59011        -1.91917        -2.98101
   C        0.72408        -3.33007        -2.62232
   C        0.61812        -3.84057        -1.35803
   C        0.55123        -3.04556        -0.19438
   N        0.51680        -2.43951         0.77907
   C        0.47742        -5.21680        -1.07667
   N        0.29390        -6.31223        -0.78974
   C        0.71528        -4.08691        -3.86146
   C        0.24260        -3.18154        -4.94414
   O       -0.04887        -3.48792        -6.07489
   C        1.12545        -5.34339        -4.16098
   C        1.92847        -6.23567        -3.36884
   C        1.74758        -7.62087        -3.50313
   C        2.50085        -8.47422        -2.73685
   C        3.48065        -7.97218        -1.86127
   C        3.70385        -6.60543        -1.76104
   C        2.92064        -5.74908        -2.50461
   C        4.12474        -9.08819        -1.20354
   C        3.54431       -10.27770        -1.67610
   C        2.45332        -9.98143        -2.67532
   C        1.08537       -10.47103        -2.15851
   C        0.72468        -9.90066        -0.79243
   C        2.74724       -10.61794        -4.04609
   C        4.09176       -10.18937        -4.62182
   C        3.98487       -11.50017        -1.22905
   C        5.00732       -11.54309        -0.27422
   C        5.58642       -10.35446         0.18554
   C        5.15269        -9.12714        -0.27201
   C        5.53372       -12.80563         0.20767
   O        6.83226       -12.86052         0.52335
   C        7.15644       -14.13282         0.85674
   C        6.01949       -14.93318         0.76733
   C        4.96177       -14.06206         0.37295
   C        3.50375       -14.34413         0.32400
   F        2.75738       -13.25668         0.56923
   F        3.08122       -14.81921        -0.87305
   F        3.11256       -15.25092         1.23384
   O        6.05546       -16.25544         1.01093
   C        5.10300       -17.11032         0.39956
   C        8.50540       -14.40255         1.23284
   C        8.98800       -15.61425         1.56612
   C       10.35135       -15.89644         1.95299
   C       10.79199       -17.22941         1.94353
   C       12.08411       -17.52481         2.30251
   C       12.96292       -16.50335         2.70472
   C       12.53748       -15.18197         2.72936
   C       11.24392       -14.89074         2.35073
   C       14.23466       -17.09702         3.04439
   C       14.14732       -18.48756         2.84619
   C       12.77631       -18.86686         2.34024
   C       12.06875       -19.84706         3.29322
   C       11.94933       -19.30782         4.71361
   C       12.86430       -19.48513         0.93068
   C       13.56264       -18.57818        -0.07546
   C       15.22159       -19.29812         3.10884
   C       16.43206       -18.72247         3.52889
   C       16.49955       -17.33643         3.74024
   C       15.41000       -16.52452         3.51437
   C       17.56019       -19.57331         3.78289
   C       18.88163       -19.28172         3.68029
   C       19.88487       -20.14024         4.36417
   O       19.70335       -21.23291         4.84562
   C       21.13112       -19.33924         4.37470
   C       20.93666       -18.15738         3.63734
   C       21.95962       -17.22845         3.53010
   C       23.15985       -17.50838         4.16547
   C       23.34955       -18.68899         4.88591
   C       22.33081       -19.62122         4.99843
   F       24.52737       -18.91978         5.47710
   F       24.15698       -16.62094         4.08754
   C       19.58883       -18.17179         3.07018
   C       19.17616       -17.43942         1.99042
   C       17.96923       -17.67447         1.29757
   N       17.03832       -17.86036         0.65313
   C       19.94806       -16.42243         1.39100
   N       20.53082       -15.57251         0.88653
   H        0.96108        -0.78708        -1.16678
   H       -0.21406        -0.54675        -6.00799
   H        0.85469        -5.69134        -5.15337
   H        0.99003        -7.99276        -4.17676
   H        4.47326        -6.21707        -1.11130
   H        3.09755        -4.68401        -2.45580
   H        1.10925       -11.56100        -2.10066
   H        0.32006       -10.18917        -2.88447
   H        1.45276       -10.20726        -0.04490
   H       -0.25145       -10.26932        -0.48726
   H        0.68712        -8.81464        -0.81922
   H        1.95032       -10.34012        -4.73854
   H        2.72920       -11.70382        -3.93659
   H        4.12689        -9.11063        -4.75813
   H        4.25276       -10.66312        -5.58728
   H        4.90400       -10.47709        -3.95791
   H        3.56701       -12.41161        -1.62570
   H        6.37992       -10.41367         0.91439
   H        5.60499        -8.21722         0.09171
   H        5.61369       -18.06100         0.24545
   H        4.76998       -16.72241        -0.56478
   H        4.24295       -17.27069         1.05242
   H        9.14262       -13.52987         1.21342
   H        8.31901       -16.46168         1.52830
   H       10.10817       -18.00886         1.63949
   H       13.20667       -14.39419         3.04145
   H       10.90594       -13.86688         2.38319
   H       12.62557       -20.78619         3.30666
   H       11.07178       -20.05676         2.90073
   H       12.93274       -19.10944         5.13432
   H       11.44421       -20.03276         5.34754
   H       11.37812       -18.38223         4.72635
   H       11.85091       -19.70167         0.58515
   H       13.40355       -20.43208         0.99951
   H       13.03544       -17.63130        -0.17030
   H       13.58441       -19.05719        -1.05149
   H       14.58618       -18.37399         0.22798
   H       15.16898       -20.36624         2.95832
   H       17.41328       -16.90929         4.12850
   H       15.47231       -15.46241         3.69646
   H       17.33874       -20.56626         4.16282
   H       21.85772       -16.30272         2.98736
   H       22.47559       -20.53326         5.55522
*
