# ORCA input file
# SCF done       -193.760140815797          0.000602691212
! CAM-B3LYP def2-SVP def2/J RIJCOSX Grid4 TightSCF
%maxcore 5000
%tddft
    Mode sTDDFT
    Ethresh 5.0
    maxcore 5000
end

%pal
  nprocs 6
  end
* xyz 0 1
   C        6.42174        -4.77191        -3.44808
   C        5.80404        -3.94741        -4.37826
   F        6.50933        -2.95161        -4.92800
   C        4.47245        -4.12791        -4.74825
   F        3.91412        -3.30934        -5.64997
   C        3.71695        -5.14425        -4.18573
   C        4.33091        -5.95912        -3.25614
   C        5.67224        -5.79050        -2.88231
   C        6.00855        -6.82015        -1.89801
   C        7.27127        -7.03267        -1.40243
   C        8.38837        -6.23333        -1.72406
   N        9.33774        -5.62122        -1.93003
   C        7.67323        -8.07600        -0.54176
   N        8.10736        -8.89830         0.13388
   C        4.80649        -7.58342        -1.62047
   C        3.74293        -7.08892        -2.50464
   O        2.58961        -7.46754        -2.62387
   C        4.74944        -8.51427        -0.59892
   C        3.76469        -9.41039        -0.15623
   C        2.55072        -9.69824        -0.76479
   C        1.61595       -10.60138        -0.29884
   C        1.88703       -11.42887         0.88781
   C        3.00107       -11.33198         1.64832
   S        4.26800       -10.22666         1.34035
   C        0.77383       -12.29846         1.01344
   C       -0.14385       -12.03784        -0.00805
   C       -1.27945       -12.87743         0.07419
   C       -1.19403       -13.73174         1.12489
   S        0.25659       -13.55656         2.06040
   C        0.34481       -10.96875        -0.83045
   C       -0.40167       -10.46388        -1.91491
   C       -0.16077        -9.33736        -2.64784
   C       -0.92516        -8.88954        -3.74361
   N       -2.04797        -9.51886        -4.24782
   C       -2.49739        -8.80574        -5.31423
   C       -3.47184        -8.75697        -6.29471
   C       -3.18214        -7.61166        -7.06549
   N       -2.06317        -6.98678        -6.56187
   C       -1.62522        -7.68782        -5.49234
   C       -0.64991        -7.74286        -4.50848
   C       -3.83262        -7.07948        -8.19684
   C       -4.97770        -7.55440        -8.76097
   C       -5.61484        -6.99808        -9.90078
   C       -5.06199        -6.03591       -10.72844
   C       -5.70028        -5.45541       -11.81145
   C       -7.07607        -5.79601       -12.16433
   C       -7.80545        -6.74279       -11.53024
   S       -7.21930        -7.64437       -10.19623
   C       -7.40950        -4.94262       -13.25250
   C       -6.33179        -4.11290       -13.56649
   C       -6.63291        -3.26416       -14.65496
   C       -7.89574        -3.46379       -15.11724
   S       -8.77266        -4.68391       -14.26423
   C       -5.23210        -4.43091       -12.68390
   C       -3.94493        -3.89601       -12.63559
   C       -3.48250        -2.79771       -13.33000
   C       -2.17510        -2.31858       -13.33391
   C       -1.05196        -2.66154       -12.59213
   C        0.27048        -2.38866       -13.19655
   O        0.50500        -1.73989       -14.19220
   C        1.25139        -3.11246       -12.34805
   C        0.57433        -3.68475       -11.25933
   C        1.26919        -4.43956       -10.33134
   C        2.63440        -4.60885       -10.51949
   C        3.29979        -4.03115       -11.59724
   C        2.60914        -3.26839       -12.52869
   F        4.61870        -4.21855       -11.74139
   F        3.31762        -5.35562        -9.64017
   C       -0.84192        -3.30727       -11.33865
   C       -1.71894        -3.38750       -10.27041
   C       -2.97045        -2.74485       -10.24031
   N       -3.99243        -2.22726       -10.15620
   C       -1.46499        -4.08848        -9.09023
   N       -1.36774        -4.71332        -8.12624
   H        7.45317        -4.58753        -3.19787
   H        2.68642        -5.28528        -4.46897
   H        5.64486        -8.55511         0.01160
   H        2.36087        -9.16801        -1.68285
   H        3.16110       -11.95279         2.51613
   H       -2.11507       -12.85746        -0.60192
   H       -1.90490       -14.47609         1.42631
   H       -1.28262       -11.05112        -2.14893
   H        0.66334        -8.68929        -2.40472
   H       -2.45190       -10.36129        -3.87940
   H       -4.28353        -9.43569        -6.46082
   H       -1.67415        -6.13395        -6.95530
   H        0.17124        -7.07902        -4.33150
   H       -3.36121        -6.19981        -8.61194
   H       -5.47975        -8.39342        -8.30006
   H       -4.05671        -5.71763       -10.49694
   H       -8.81389        -6.99258       -11.81893
   H       -5.96840        -2.54221       -15.09164
   H       -8.38275        -2.95836       -15.92816
   H       -3.23788        -4.43835       -12.02325
   H       -4.17526        -2.28373       -13.97817
   H       -1.94024        -1.61362       -14.12694
   H        0.80186        -4.90799        -9.48101
   H        3.12346        -2.81766       -13.36222
*
