# ORCA input file
# SCF done       -208.141387679380          0.000724979562
! CAM-B3LYP def2-SVP def2/J RIJCOSX Grid4 TightSCF
%maxcore 5000
%tddft
    Mode sTDDFT
    Ethresh 5.0
    maxcore 5000
end

%pal
  nprocs 6
  end
* xyz 0 1
   C        5.57238        -8.63084        11.73204
   C        4.80629        -7.69000        12.40317
   F        4.70358        -7.76973        13.73097
   C        4.13416        -6.66841        11.72477
   F        3.40578        -5.79314        12.41756
   C        4.21841        -6.55786        10.34603
   C        4.98819        -7.49311         9.67814
   C        5.66036        -8.52960        10.35199
   C        6.35825        -9.35454         9.37256
   C        7.26360       -10.33998         9.64031
   C        7.62670       -10.74358        10.94514
   N        7.95347       -11.10937        11.98134
   C        7.99231       -11.04173         8.65253
   N        8.63036       -11.62742         7.90081
   C        5.98018        -8.87141         8.04826
   C        5.25153        -7.59024         8.23072
   O        4.93152        -6.78549         7.38346
   C        6.06051        -9.59888         6.90333
   C        5.65850        -9.22517         5.58852
   C        5.62076        -8.00417         4.96958
   C        5.10468        -8.06030         3.65387
   C        4.89355        -7.02958         2.72029
   C        4.34974        -7.40716         1.48641
   C        4.08236        -8.78248         1.24585
   N        4.29458        -9.75441         2.10337
   C        4.78117        -9.39391         3.27215
   S        5.12190       -10.52871         4.52714
   S        3.41915        -9.07589        -0.33410
   C        3.45695        -7.36189        -0.65556
   C        3.95535        -6.61858         0.36236
   F        4.02777        -5.28220         0.33105
   F        3.00969        -6.90538        -1.81561
   C        5.27320        -5.65016         2.99391
   S        6.46200        -4.89160         1.98784
   C        6.37584        -3.42578         2.91220
   C        5.45238        -3.53563         3.93528
   C        4.83230        -4.80432         3.98227
   C        3.76771        -5.12247         4.98383
   C        3.99368        -4.25911         6.22994
   C        3.02153        -4.56655         7.25102
   N        2.26438        -4.81538         8.06929
   C        3.94820        -2.77476         5.82413
   C        4.04053        -1.92736         6.98947
   N        4.19145        -1.24325         7.89208
   C        5.14405        -2.44498         4.91359
   C        7.20250        -2.32476         2.52531
   C        7.49697        -1.17337         3.20663
   C        8.33622        -0.29197         2.48671
   C        8.82704         0.98165         2.83523
   C        9.70135         1.58077         1.91138
   C        9.97999         0.91136         0.69247
   N        9.50484        -0.26529         0.35146
   C        8.71277        -0.83807         1.22850
   S        7.97723        -2.37808         0.94944
   S       11.02189         1.82714        -0.35674
   C       11.06382         3.10775         0.82113
   C       10.33850         2.85376         1.94058
   F       10.23372         3.70987         2.96487
   F       11.76860         4.20239         0.57557
   C        8.49313         1.64917         4.06998
   C        7.30078         1.75097         4.70040
   C        7.26732         2.23302         6.11690
   O        8.18919         2.69689         6.73849
   C        5.89200         1.96368         6.58485
   C        5.12729         1.43684         5.52718
   C        3.78557         1.14635         5.72691
   C        3.24450         1.37687         6.98176
   C        4.01333         1.89147         8.02879
   C        5.35218         2.19189         7.83582
   F        3.44939         2.11327         9.21412
   F        1.95478         1.10363         7.18216
   C        5.94938         1.37771         4.32111
   C        5.48660         1.14783         3.05209
   C        6.20169         1.45619         1.87627
   N        6.70048         1.76525         0.89046
   C        4.21228         0.61046         2.77498
   N        3.22271         0.08610         2.52435
   H        6.06224        -9.40652        12.29775
   H        3.68466        -5.77982         9.82079
   H        6.38311       -10.63030         6.98606
   H        5.98363        -7.10324         5.42553
   H        3.78699        -6.17627         5.26035
   H        2.78223        -4.90544         4.55806
   H        4.97897        -4.49130         6.65249
   H        3.00360        -2.56759         5.30806
   H        6.02478        -2.28151         5.54655
   H        4.94091        -1.51578         4.37508
   H        7.18110        -0.97276         4.21179
   H        9.31872         2.12940         4.58783
   H        3.14598         0.75533         4.95246
   H        5.94744         2.59869         8.63779
*
