# ORCA input file
# SCF done       -167.601586187133          0.000570905375
! CAM-B3LYP def2-SVP def2/J RIJCOSX Grid4 TightSCF
%maxcore 5000
%tddft
    Mode sTDDFT
    Ethresh 5.0
    maxcore 5000
end

%pal
  nprocs 6
  end
* xyz 0 1
   C        0.97501        -1.12598         3.15184
   C        1.36108         0.20258         3.25295
   F        1.09735         0.87004         4.38180
   C        2.01818         0.85534         2.20961
   F        2.36602         2.14059         2.34830
   C        2.31734         0.18714         1.03287
   C        1.94305        -1.13829         0.93516
   C        1.27096        -1.79952         1.97828
   C        0.97032        -3.16720         1.55073
   C       -0.00561        -3.96445         2.09052
   C       -0.70937        -3.65916         3.27279
   N       -1.29015        -3.46722         4.24392
   C       -0.47836        -5.13222         1.45878
   N       -0.91867        -6.05948         0.94595
   C        1.67477        -3.39244         0.31144
   C        2.16223        -2.08271        -0.18488
   O        2.66893        -1.85262        -1.25921
   C        2.00680        -4.52350        -0.38010
   C        2.04281        -5.86773         0.03525
   N        2.22853        -6.87926        -0.87229
   C        2.31201        -8.06935        -0.23312
   C        2.22741        -7.82668         1.13958
   C        2.05209        -6.46369         1.30554
   C        2.45735        -9.28323        -0.90682
   C        2.56968       -10.33827        -1.48958
   C        2.70273       -11.55400        -2.17672
   C        3.92532       -12.02161        -2.64884
   C        4.04723       -13.24149        -3.35380
   N        5.32475       -13.53157        -3.73168
   C        6.14861       -12.63202        -3.36533
   S        5.48416       -11.27037        -2.49226
   C        2.93317       -14.05872        -3.64217
   C        1.70895       -13.58581        -3.15389
   C        1.58879       -12.36877        -2.43371
   N        0.32654       -12.06595        -2.02331
   C       -0.51147       -12.95841        -2.36834
   S        0.12984       -14.31216        -3.26453
   C        3.16300       -15.25925        -4.39477
   C        2.22419       -16.07635        -4.91521
   C        2.50401       -17.24448        -5.67925
   N        1.50827       -17.96515        -6.24194
   C        2.02646       -19.02626        -6.92753
   C        3.42464       -18.97931        -6.78358
   C        3.71861       -17.87321        -6.01159
   C        1.22834       -19.91098        -7.61383
   C        0.38156       -20.59095        -8.17809
   C       -0.37191       -21.48466        -8.88555
   C       -1.72243       -21.57878        -9.11336
   C       -2.16532       -22.71569        -9.95650
   O       -1.45758       -23.56155       -10.45670
   C       -3.63407       -22.59547       -10.05451
   C       -4.05127       -21.46855        -9.32711
   C       -5.40013       -21.15297        -9.27208
   C       -6.29282       -21.97320        -9.94633
   C       -5.86610       -23.08892       -10.66579
   C       -4.52025       -23.41263       -10.72659
   F       -6.76288       -23.85214       -11.30115
   F       -7.59742       -21.68077        -9.90071
   C       -2.87999       -20.81302        -8.72813
   C       -2.95865       -19.67914        -7.95667
   C       -1.91446       -18.98262        -7.33218
   N       -1.18398       -18.30449        -6.75910
   C       -4.16127       -19.00075        -7.65431
   N       -5.08340       -18.38400        -7.35899
   H        0.47041        -1.58911         3.98416
   H        2.82451         0.69086         0.22556
   H        2.38856        -4.33215        -1.37992
   H        2.22178        -6.76239        -1.87320
   H        2.28469        -8.57138         1.90759
   H        1.98630        -5.94630         2.24204
   H        7.20139       -12.67544        -3.56478
   H       -1.55892       -12.91346        -2.14365
   H        4.20889       -15.47036        -4.56439
   H        1.17249       -15.85878        -4.78954
   H        0.50893       -17.78070        -6.20397
   H        4.11585       -19.68160        -7.20592
   H        4.69397       -17.54670        -5.71140
   H        0.19871       -22.27877        -9.36723
   H       -5.79000       -20.30581        -8.73320
   H       -4.18201       -24.27383       -11.28033
*
