# ORCA input file
# SCF done       -173.920608057638          0.000396271136
! CAM-B3LYP def2-SVP def2/J RIJCOSX Grid4 TightSCF
%maxcore 5000
%tddft
    Mode sTDDFT
    Ethresh 5.0
    maxcore 5000
end

%pal
  nprocs 6
  end
* xyz 0 1
   C        3.19936        -0.03338         0.61018
   C        2.77884         1.26110         0.34158
   F        3.45352         2.28498         0.87371
   C        1.67373         1.51829        -0.47113
   F        1.29954         2.78263        -0.69711
   C        0.96242         0.47888        -1.04939
   C        1.38704        -0.80970        -0.79212
   C        2.49242        -1.07667         0.03557
   C        2.65626        -2.52688         0.14768
   C        3.31698        -3.17285         1.15969
   C        4.10795        -2.51948         2.12673
   N        4.77845        -2.03132         2.91968
   C        3.18697        -4.55669         1.39496
   N        3.06136        -5.67141         1.63590
   C        1.77076        -3.13244        -0.81893
   C        0.83455        -2.08495        -1.30223
   O       -0.13985        -2.24701        -1.99925
   C        1.71056        -4.37670        -1.37811
   C        2.67719        -5.40031        -1.42785
   N        2.35743        -6.64661        -1.89207
   C        3.46673        -7.42721        -1.93922
   C        4.55656        -6.64608        -1.52655
   C        4.06625        -5.39670        -1.20397
   C        3.44459        -8.74751        -2.35346
   C        3.42328        -9.90322        -2.72805
   C        3.39860       -11.22040        -3.16301
   C        4.57392       -12.00209        -3.21714
   C        4.55924       -13.37176        -3.66872
   N        5.71050       -14.06141        -3.68838
   C        6.82126       -13.48318        -3.30735
   C        6.83085       -12.11574        -2.87210
   N        5.72339       -11.42139        -2.83640
   C        8.04911       -11.50421        -2.48164
   N        9.05349       -11.04450        -2.17954
   C        8.02497       -14.23198        -3.33389
   N        9.00961       -14.81678        -3.34770
   C        3.36482       -14.00778        -4.09642
   C        2.19617       -13.21141        -4.04130
   C        2.20816       -11.84475        -3.58043
   N        0.99291       -11.29313        -3.61383
   S       -0.05726       -12.37132        -4.16358
   N        0.96158       -13.58693        -4.38974
   C        3.31415       -15.35495        -4.56232
   N        2.16087       -15.92094        -4.99643
   C        2.39207       -17.20330        -5.38498
   C        3.76177       -17.47208        -5.18701
   C        4.33288       -16.32660        -4.68060
   C        1.41093       -18.02817        -5.88723
   C        0.47402       -18.67604        -6.32990
   C       -0.43936       -19.56016        -6.83905
   C       -1.75808       -19.42402        -7.18338
   C       -2.41610       -20.62763        -7.75457
   O       -1.91339       -21.71759        -7.90664
   C       -3.78952       -20.20885        -8.09781
   C       -3.95890       -18.85780        -7.75140
   C       -5.17627       -18.23841        -7.99102
   C       -6.18971       -18.98824        -8.56931
   C       -6.01012       -20.33003        -8.90719
   C       -4.79726       -20.95737        -8.67232
   F       -7.01581       -21.01397        -9.46254
   F       -7.36831       -18.40358        -8.80762
   C       -2.71612       -18.34465        -7.16037
   C       -2.57133       -17.06777        -6.68030
   C       -1.44135       -16.50153        -6.06760
   N       -0.60689       -15.90835        -5.54707
   C       -3.58042       -16.07891        -6.71507
   N       -4.33271       -15.21203        -6.70019
   H        4.05937        -0.18390         1.24239
   H        0.10842         0.67656        -1.67738
   H        0.80614        -4.55904        -1.95309
   H        1.42495        -6.96200        -2.10862
   H        5.57334        -6.98006        -1.47660
   H        4.64717        -4.55377        -0.88634
   H        1.24936       -15.46354        -5.01766
   H        4.24917       -18.40200        -5.40250
   H        5.35972       -16.18105        -4.41698
   H       -0.04865       -20.56157        -7.01983
   H       -5.37369       -17.20656        -7.75300
   H       -4.65019       -21.99375        -8.93130
*
