# ORCA input file
# SCF done       -192.386803290441          0.000844201061
! CAM-B3LYP def2-SVP def2/J RIJCOSX Grid4 TightSCF
%maxcore 5000
%tddft
    Mode sTDDFT
    Ethresh 5.0
    maxcore 5000
end

%pal
  nprocs 6
  end
* xyz 0 1
   C       -4.33996        -2.40191        -1.05874
   C       -5.41357        -1.70555        -1.58858
   F       -6.61438        -2.29427        -1.62118
   C       -5.27269        -0.41380        -2.09791
   F       -6.33835         0.20410        -2.62423
   C       -4.04509         0.22646        -2.07577
   C       -2.97260        -0.46660        -1.54758
   C       -3.10303        -1.77610        -1.05044
   C       -1.80751        -2.22759        -0.55051
   C       -1.59827        -3.30266         0.26867
   C       -2.57059        -4.29283         0.52036
   N       -3.31430        -5.15008         0.68701
   C       -0.39441        -3.51755         0.97228
   N        0.54722        -3.68513         1.60474
   C       -0.82699        -1.22539        -0.92925
   C       -1.56739        -0.01895        -1.40902
   O       -1.10443         1.06241        -1.66694
   C        0.52380        -1.24815        -1.03153
   C        1.43696        -2.35415        -0.98169
   C        2.72446        -2.21021        -0.52801
   F        3.24888        -1.08635        -0.06079
   S        3.65135        -3.65956        -0.49983
   C        2.29415        -4.49162        -1.18065
   F        2.42442        -5.77587        -1.48739
   C        1.18957        -3.71674        -1.39608
   C       -0.04170        -4.14507        -2.00828
   C       -0.53666        -5.39859        -1.98184
   C       -1.82149        -5.69789        -2.53431
   O       -2.54331        -4.68222        -3.03828
   C       -3.73021        -5.16576        -3.46935
   C       -3.79299        -6.54172        -3.23203
   C       -2.55202        -6.88410        -2.62737
   C       -2.07924        -8.23283        -2.20509
   F       -0.83592        -8.23258        -1.71505
   F       -2.84830        -8.78733        -1.25063
   F       -2.06468        -9.11321        -3.22766
   O       -4.89144        -7.21792        -3.57813
   C       -5.05727        -8.58785        -3.25477
   C       -4.71426        -4.33087        -4.06826
   C       -4.54185        -3.00764        -4.25737
   C       -5.47692        -2.08144        -4.84204
   C       -5.04346        -0.90192        -5.38407
   F       -3.77535        -0.48648        -5.40791
   S       -6.27003         0.08320        -6.09616
   C       -7.42215        -1.11342        -5.63364
   F       -8.70367        -0.87596        -5.89255
   C       -6.91268        -2.19977        -4.96673
   C       -7.70297        -3.24009        -4.37121
   C       -8.98050        -3.54102        -4.69414
   C       -9.70281        -4.55437        -4.01301
   C      -10.92860        -5.04388        -4.34034
   C      -11.72685        -5.79620        -3.33508
   O      -11.32748        -6.28844        -2.30793
   C      -13.11618        -5.75727        -3.84699
   C      -13.13353        -5.15374        -5.11782
   C      -14.33453        -4.97151        -5.78471
   C      -15.49546        -5.40402        -5.16160
   C      -15.46929        -6.01440        -3.90599
   C      -14.27239        -6.19725        -3.23243
   F      -16.61327        -6.42242        -3.34653
   F      -16.66699        -5.22762        -5.77964
   C      -11.75929        -4.84265        -5.51106
   C      -11.32799        -4.63142        -6.79198
   C       -9.96909        -4.63506        -7.17764
   N       -8.88645        -4.68776        -7.55309
   C      -12.19431        -4.50270        -7.89940
   N      -12.85784        -4.37471        -8.82626
   H       -4.49630        -3.40101        -0.68762
   H       -3.93307         1.22752        -2.46083
   H        0.98266        -0.28084        -1.21760
   H       -0.60899        -3.36663        -2.50023
   H        0.00143        -6.19667        -1.50027
   H       -6.05486        -8.83839        -3.61090
   H       -5.00715        -8.75376        -2.17736
   H       -4.32684        -9.21525        -3.76783
   H       -5.60108        -4.85312        -4.38864
   H       -3.58293        -2.57515        -4.00007
   H       -7.21761        -3.81179        -3.59438
   H       -9.48687        -3.00092        -5.47820
   H       -9.27976        -4.92903        -3.08709
   H      -14.40381        -4.50193        -6.75250
   H      -14.25116        -6.66604        -2.26152
*
