# ORCA input file
# SCF done       -151.725017398200          0.000650273769
! CAM-B3LYP def2-SVP def2/J RIJCOSX Grid4 TightSCF
%maxcore 5000
%tddft
    Mode sTDDFT
    Ethresh 5.0
    maxcore 5000
end

%pal
  nprocs 6
  end
* xyz 0 1
   C        0.80220        -1.34776        -4.72716
   O        1.32538        -0.23165        -5.29252
   C        2.52128        -0.63124        -5.75724
   C        3.82198        -0.36172        -6.46047
   C        4.12958        -1.87251        -6.18474
   C        2.77127        -1.93874        -5.51098
   C        1.63898        -2.45688        -4.81948
   C        1.42207        -3.79087        -4.34482
   C        0.31631        -4.21397        -3.69217
   C        0.09666        -5.53883        -3.22945
   C       -1.03150        -5.98297        -2.57589
   C       -0.89201        -7.36673        -2.27844
   C        0.42338        -7.73411        -2.80405
   C        1.01732        -6.67008        -3.36623
   F        0.93865        -8.97195        -2.72053
   C       -1.78237        -8.20455        -1.63882
   C       -1.64481        -9.58506        -1.34525
   C       -2.77690       -10.03239        -0.68832
   C       -3.69254        -8.89781        -0.54700
   C       -3.09669        -7.83515        -1.10848
   F       -3.61014        -6.59781        -1.18575
   C       -2.99585       -11.35013        -0.23811
   C       -4.11241       -11.78557         0.41282
   C       -4.32284       -13.10589         0.86276
   N       -5.48878       -13.45676         1.51812
   C       -5.43165       -14.77551         1.83832
   C       -6.12143       -15.81412         2.44415
   C       -5.29325       -16.94608         2.34189
   N       -4.12686       -16.59421         1.68817
   C       -4.18474       -15.27569         1.36816
   C       -3.49480       -14.23822         0.76186
   C       -5.49966       -18.26974         2.78379
   C       -6.61335       -18.72109         3.42891
   C       -6.81698       -20.04792         3.85899
   C       -7.94678       -20.52425         4.50260
   C       -7.79223       -21.90709         4.76673
   C       -6.47152       -22.24775         4.23763
   C       -5.88587       -21.16582         3.70137
   F       -5.93914       -23.47968         4.29346
   C       -8.67742       -22.77586         5.37898
   C       -8.52272       -24.16280         5.61959
   C       -9.65795       -24.64851         6.24306
   C      -10.58771       -23.53101         6.42008
   C      -10.00065       -22.43837         5.90954
   F      -10.52157       -21.20143         5.87528
   C       -9.95380       -25.96597         6.65747
   C       -9.11214       -27.02959         6.52201
   C       -9.42154       -28.34504         6.92663
   O      -10.65409       -28.60817         7.49015
   C      -10.62666       -29.91853         7.74574
   C      -11.27514       -31.16758         8.26769
   C       -9.94026       -31.87713         7.85909
   C       -9.45933       -30.51777         7.38630
   C       -8.62861       -29.51592         6.83935
   C       -7.29424       -29.62175         6.31380
   C       -6.61736       -30.76722         6.27041
   H       -0.16927        -1.24377        -4.28833
   H        4.48506         0.34074        -5.95889
   H        3.73573        -0.09544        -7.51237
   H        4.97633        -2.04633        -5.52465
   H        4.22664        -2.48303        -7.07966
   H        2.22627        -4.48440        -4.54587
   H       -0.48289        -3.51172        -3.49603
   H       -1.88672        -5.38528        -2.32880
   H        1.98356        -6.64374        -3.82940
   H       -0.79266       -10.18584        -1.59574
   H       -4.65784        -8.91856        -0.08090
   H       -2.19919       -12.05425        -0.43494
   H       -4.91143       -11.08400         0.61195
   H       -6.24319       -12.82232         1.71607
   H       -7.08808       -15.78717         2.90380
   H       -3.37332       -17.22904         1.48836
   H       -2.52824       -14.26693         0.30224
   H       -4.69612       -18.96466         2.57931
   H       -7.41713       -18.02730         3.63319
   H       -8.80929       -19.94085         4.75878
   H       -4.91750       -21.12392         3.24325
   H       -7.65698       -24.73216         5.34749
   H      -11.55479       -23.60191         6.87905
   H      -10.92177       -26.13205         7.11144
   H       -8.13886       -26.88720         6.07855
   H      -12.15764       -31.49506         7.72110
   H      -11.48798       -31.16661         9.33524
   H      -10.04755       -32.62077         7.07258
   H       -9.37877       -32.29610         8.69102
   H       -6.84592       -28.71036         5.94420
   H       -7.04567       -31.68646         6.63307
   H       -5.61916       -30.82038         5.87312
*
