# ORCA input file
# SCF done       -202.295470666319          0.000253121278
! CAM-B3LYP def2-SVP def2/J RIJCOSX Grid4 TightSCF
%maxcore 5000
%tddft
    Mode sTDDFT
    Ethresh 5.0
    maxcore 5000
end

%pal
  nprocs 6
  end
* xyz 0 1
   C        2.26699         4.16983         4.73561
   C        2.84400         3.08619         4.14292
   C        3.29365         2.12391         5.10077
   C        3.06649         2.48929         6.38674
   S        2.29138         4.02798         6.44994
   C        3.81919         0.94668         4.40236
   O        4.23377        -0.07534         4.89565
   C        3.63581         1.24582         2.94666
   C        3.06454         2.56757         2.79758
   C        2.85571         3.32906         1.67136
   N        2.68120         4.76731         1.78196
   O        1.77336         5.26157         1.15813
   O        3.45198         5.36418         2.49992
   N        2.79824         2.88718         0.31806
   O        3.18015         3.66134        -0.53449
   O        2.37190         1.76723         0.09916
   C        3.91843         0.33279         1.95681
   C        4.77030        -0.78446         2.00001
   C        4.74022        -1.78259         1.03294
   C        5.76140        -2.73150         1.30835
   C        6.43437        -2.22884         2.50241
   C        5.87251        -1.08147         2.91786
   F        7.48857        -2.84124         3.05772
   C        6.09838        -3.85624         0.57892
   C        7.15781        -4.76359         0.80073
   C        7.19372        -5.68929        -0.23261
   C        6.08477        -5.39048        -1.14725
   C        5.44779        -4.31838        -0.65775
   F        4.37604        -3.72734        -1.18980
   C        8.16454        -6.69151        -0.39212
   C        8.27979        -7.49970        -1.49037
   C        9.30674        -8.43832        -1.69446
   N        9.42370        -9.11570        -2.89274
   C       10.53310        -9.89517        -2.84748
   C       11.32657       -10.75814        -3.57918
   C       12.39841       -11.11865        -2.73475
   N       12.24312       -10.49590        -1.51239
   C       11.12494        -9.72727        -1.55727
   C       10.36465        -8.82181        -0.84184
   C       13.49300       -11.92865        -3.08432
   C       14.51685       -12.30405        -2.25736
   C       15.65557       -13.01600        -2.67940
   C       16.03505       -13.35985        -3.96801
   C       17.30098       -13.98782        -3.92758
   C       17.66506       -14.03924        -2.50355
   C       16.70864       -13.46431        -1.76191
   F       18.80041       -14.58191        -2.05427
   C       18.07973       -14.40579        -4.98939
   C       19.38273       -14.96987        -4.95918
   C       19.82860       -15.15019        -6.25974
   C       18.76471       -14.71898        -7.17128
   C       17.74337       -14.29590        -6.41011
   F       16.57033       -13.82290        -6.84703
   C       21.09194       -15.64962        -6.62556
   C       21.57265       -15.67295        -7.90761
   C       22.82153       -16.22066        -8.23276
   C       23.38390       -16.38172        -9.47436
   C       22.85042       -16.18701       -10.80271
   C       21.53240       -16.30655       -11.17763
   N       21.03941       -15.94918       -12.47081
   O       20.09488       -16.57212       -12.90297
   O       21.60603       -15.04592       -13.05673
   N       20.53203       -16.89230       -10.31749
   O       19.43162       -16.38617       -10.32608
   O       20.86577       -17.83321        -9.63245
   C       23.99431       -16.04052       -11.68945
   C       24.25406       -15.75459       -12.99724
   S       25.93148       -15.90052       -13.34642
   C       26.30880       -16.34911       -11.72363
   C       25.18831       -16.37408       -10.96217
   C       24.85143       -16.64041        -9.55801
   O       25.58330       -16.94516        -8.64730
   H        1.82351         5.04615         4.30763
   H        3.29919         1.96088         7.28927
   H        3.41224         0.45730         1.00443
   H        4.04112        -1.83729         0.22070
   H        6.17377        -0.48417         3.75308
   H        7.84578        -4.71991         1.62193
   H        5.82992        -5.93867        -2.03209
   H        8.89136        -6.78159         0.40298
   H        7.56400        -7.39449        -2.29423
   H        8.80056        -9.00390        -3.67434
   H       11.19286       -11.10330        -4.58427
   H       12.88807       -10.56683        -0.74516
   H       10.52200        -8.46616         0.15554
   H       13.51132       -12.25877        -4.11220
   H       14.48283       -12.04153        -1.20754
   H       15.48628       -13.15924        -4.86577
   H       16.68870       -13.34692        -0.69585
   H       19.94217       -15.18959        -4.07067
   H       18.78441       -14.78050        -8.24159
   H       21.70766       -16.05108        -5.83048
   H       20.97746       -15.21668        -8.68366
   H       23.46569       -16.50960        -7.40864
   H       23.58436       -15.43005       -13.76851
   H       27.31957       -16.56602       -11.44194
*
