# ORCA input file
# SCF done       -223.687492271826          0.000852250284
! CAM-B3LYP def2-SVP def2/J RIJCOSX Grid4 TightSCF
%maxcore 5000
%tddft
    Mode sTDDFT
    Ethresh 5.0
    maxcore 5000
end

%pal
  nprocs 6
  end
* xyz 0 1
   C       -8.30477        -4.33246        14.11335
   C       -7.53674        -4.85390        15.14414
   C       -6.46505        -5.69591        14.88444
   C       -6.12503        -6.03601        13.58347
   C       -6.88543        -5.52225        12.54654
   C       -7.98290        -4.67039        12.80834
   C       -8.60762        -4.30137        11.54336
   C       -9.63377        -3.40837        11.38370
   C      -10.23567        -2.69748        12.44394
   N      -10.76807        -2.08618        13.25651
   C      -10.21202        -3.03704        10.15128
   N      -10.73171        -2.68218         9.19096
   C       -7.94223        -5.07712        10.50559
   C       -6.75741        -5.67069        11.10549
   C       -5.62554        -6.04962        10.43155
   C       -5.42554        -5.85232         9.04777
   N       -5.17083        -5.62475         7.95189
   C       -4.47820        -6.57302        11.06212
   N       -3.52872        -7.02053        11.52637
   C       -8.40916        -5.27624         9.23130
   C       -8.06589        -6.33342         8.36292
   C       -8.23746        -6.32291         6.98997
   C       -7.77977        -7.55680         6.45496
   C       -7.38393        -8.35439         7.61375
   C       -7.53582        -7.64594         8.74492
   F       -6.95614        -9.61705         7.52974
   C       -7.68919        -7.93325         5.12872
   C       -7.18457        -9.13995         4.59372
   C       -7.24609        -9.08228         3.20579
   C       -7.82294        -7.78604         2.83156
   C       -8.08277        -7.12224         3.96570
   F       -8.62355        -5.90701         4.06818
   C       -6.84467       -10.03907         2.26300
   C       -6.35354       -11.28244         2.58029
   C       -5.91662       -12.21428         1.63310
   S       -5.80540       -11.73081        -0.03312
   C       -5.13862       -13.24233        -0.55047
   C       -4.92553       -14.08588         0.56553
   C       -5.43360       -13.54193         1.78706
   C       -5.39810       -14.35076         2.94941
   C       -6.08608       -13.98981         4.23455
   F       -7.34388       -13.54929         4.04925
   F       -6.19079       -15.03695         5.06391
   F       -5.44389       -13.03632         4.94010
   C       -4.74029       -15.56045         2.90899
   C       -4.09199       -16.00743         1.76188
   C       -4.17254       -15.29428         0.58208
   O       -3.54973       -15.64453        -0.55508
   C       -2.72989       -16.79404        -0.57452
   C       -4.97107       -13.40044        -1.93854
   C       -4.96612       -14.56798        -2.65151
   C       -4.78619       -14.64972        -4.04264
   C       -4.82541       -15.82265        -4.78283
   C       -4.54406       -15.53117        -6.13874
   C       -4.33847       -14.07828        -6.18242
   C       -4.48481       -13.54640        -4.96023
   F       -4.05537       -13.40998        -7.30556
   C       -4.45765       -16.40434        -7.20555
   C       -4.11237       -16.11868        -8.55239
   C       -4.12815       -17.29402        -9.28410
   C       -4.51205       -18.38574        -8.38689
   C       -4.69270       -17.84948        -7.17022
   F       -5.04616       -18.50645        -6.05865
   C       -3.76738       -17.41040       -10.64030
   C       -3.84309       -18.55620       -11.37920
   C       -3.47282       -18.67352       -12.73813
   C       -2.53903       -17.94270       -13.42560
   C       -2.50085       -17.80430       -14.87718
   C       -3.14788       -18.57605       -15.80540
   C       -3.95291       -19.70104       -15.52721
   N       -4.61809       -20.62649       -15.38625
   C       -3.06154       -18.37372       -17.19980
   N       -3.03631       -18.26971       -18.34252
   C       -1.63791       -16.66654       -15.16921
   C       -1.04231       -16.22449       -13.96634
   C       -0.18899       -15.13350       -13.95911
   C        0.07186       -14.48948       -15.15915
   C       -0.50287       -14.92847       -16.34343
   C       -1.36176       -16.01728       -16.36235
   C       -1.47260       -17.10394       -12.88992
   C       -0.80799       -17.28399       -11.70596
   C        0.28765       -16.49796       -11.29266
   N        1.17036       -15.88131       -10.89526
   C       -1.06976       -18.32223       -10.78773
   N       -1.18818       -19.17379       -10.02752
   H       -9.13523        -3.68305        14.33589
   H       -7.78184        -4.60067        16.16422
   H       -5.88676        -6.09421        15.70399
   H       -5.29385        -6.69553        13.39283
   H       -9.16576        -4.60026         8.85527
   H       -8.59184        -5.48954         6.41553
   H       -7.37406        -7.99356         9.74672
   H       -6.80441        -9.95293         5.17950
   H       -7.99702        -7.45941         1.82504
   H       -6.94411        -9.76865         1.21857
   H       -6.28789       -11.52777         3.62396
   H       -4.70513       -16.17774         3.79258
   H       -3.53876       -16.92959         1.81271
   H       -2.32698       -16.84134        -1.58464
   H       -3.30649       -17.70074        -0.37093
   H       -1.90841       -16.71113         0.14195
   H       -4.94731       -12.46994        -2.49156
   H       -5.13215       -15.50415        -2.14174
   H       -5.02421       -16.80038        -4.39000
   H       -4.38994       -12.51248        -4.69471
   H       -3.86533       -15.14710        -8.93393
   H       -4.60200       -19.41838        -8.65711
   H       -3.42743       -16.49811       -11.11713
   H       -4.31581       -19.42406       -10.94187
   H       -4.04053       -19.40088       -13.30403
   H        0.25668       -14.77867       -13.04405
   H        0.73032       -13.63452       -15.16875
   H       -0.28339       -14.41399       -17.26636
   H       -1.80313       -16.33878       -17.29107
*
