# ORCA input file
# SCF done       -174.013069281158          0.000365685604
! CAM-B3LYP def2-SVP def2/J RIJCOSX Grid4 TightSCF
%maxcore 5000
%tddft
    Mode sTDDFT
    Ethresh 5.0
    maxcore 5000
end

%pal
  nprocs 6
  end
* xyz 0 1
   C        1.57282        -3.43081         0.84523
   C        2.11091        -2.77047         1.94106
   C        1.30747        -2.35574         2.99194
   C       -0.05815        -2.60135         2.98428
   C       -0.60443        -3.26153         1.89752
   C        0.20920        -3.67085         0.81790
   C       -0.63606        -4.29504        -0.19522
   C       -0.19437        -4.82417        -1.38358
   C        1.16108        -4.88933        -1.76609
   N        2.24133        -4.98098        -2.14510
   C       -1.00387        -5.38733        -2.38983
   N       -1.59318        -5.85030        -3.26141
   C       -2.00506        -4.18437         0.26911
   C       -1.97145        -3.68292         1.62519
   C       -2.96827        -3.78582         2.56873
   C       -4.16907        -4.49524         2.38940
   N       -5.14294        -5.10241         2.32755
   C       -2.88391        -3.25954         3.87159
   N       -2.90486        -2.82152         4.93337
   C       -3.11542        -4.49162        -0.50167
   C       -4.42045        -4.02730        -0.36927
   S       -5.70586        -4.96388        -1.08096
   C       -6.94970        -3.95440        -0.42433
   C       -6.38584        -2.84251         0.23704
   C       -4.96025        -2.87598         0.25265
   C       -4.24293        -1.80157         0.78608
   C       -4.91941        -0.75466         1.37370
   S       -3.97127         0.55526         2.06331
   C       -6.32543        -0.73396         1.39351
   C       -7.04391        -1.74194         0.81181
   C       -8.29685        -4.34915        -0.56849
   N       -8.63976        -5.36368        -1.44326
   C       -9.97435        -5.58522        -1.35596
   C      -11.01765        -6.35777        -1.84130
   C      -12.17122        -5.92529        -1.16228
   N      -11.83038        -4.90735        -0.29128
   C      -10.49608        -4.68290        -0.38618
   C       -9.45338        -3.91115         0.10265
   C      -13.50651        -6.36867        -1.25876
   C      -13.91815        -7.41650        -2.03084
   C      -15.22377        -7.92328        -2.15088
   S      -15.38791        -9.51937        -2.80619
   C      -17.10829        -9.56677        -2.55541
   C      -17.54742        -8.33029        -2.02420
   C      -16.49289        -7.39890        -1.80384
   C      -16.80427        -6.10923        -1.35291
   C      -18.11100        -5.78492        -1.06620
   S      -18.45559        -4.14904        -0.50146
   C      -19.14294        -6.72659        -1.22812
   C      -18.86933        -7.97724        -1.70883
   C      -17.94163       -10.60855        -2.95948
   C      -17.61902       -11.88312        -3.37821
   C      -18.45101       -12.67886        -4.26116
   C      -19.77000       -12.46967        -4.58280
   C      -20.58540       -11.44559        -4.06255
   N      -21.30741       -10.63790        -3.67759
   C      -20.51012       -13.28821        -5.45989
   N      -21.17398       -13.90852        -6.16225
   C      -17.61122       -13.75771        -4.77178
   C      -16.35853       -13.70644        -4.12021
   C      -15.35887       -14.60981        -4.43520
   C      -15.61489       -15.56683        -5.40673
   C      -16.84669       -15.62589        -6.04104
   C      -17.85679       -14.72615        -5.73099
   C      -16.40158       -12.63286        -3.13797
   C      -15.61091       -12.54827        -2.01861
   C      -14.47511       -13.34899        -1.79431
   N      -13.52723       -13.95716        -1.57015
   C      -15.91335       -11.71674        -0.92205
   N      -16.16213       -11.08749         0.00605
   H        2.21423        -3.74277         0.03782
   H        3.17204        -2.57511         1.96962
   H        1.74636        -1.83454         3.82897
   H       -0.67386        -2.26985         3.80447
   H       -2.95799        -5.16991        -1.33058
   H       -3.16789        -1.76592         0.71480
   H       -5.00407         1.26004         2.52348
   H       -6.83794         0.10345         1.84344
   H       -8.11707        -1.67310         0.77192
   H       -7.98282        -5.85217        -2.02792
   H      -10.97664        -7.13218        -2.57910
   H      -12.47647        -4.44467         0.32506
   H       -9.49802        -3.17617         0.87802
   H      -14.21741        -5.85745        -0.62724
   H      -13.16163        -7.97720        -2.56374
   H      -16.04399        -5.35310        -1.25793
   H      -19.77125        -4.30858        -0.37925
   H      -20.15959        -6.45263        -0.98820
   H      -19.67201        -8.68313        -1.85167
   H      -18.98280       -10.32866        -3.04094
   H      -14.39677       -14.56900        -3.95044
   H      -14.84283       -16.27346        -5.67047
   H      -17.02585       -16.38115        -6.79098
   H      -18.80663       -14.78757        -6.23601
*
