# ORCA input file
# SCF done       -150.017857899516          0.000653171388
! CAM-B3LYP def2-SVP def2/J RIJCOSX Grid4 TightSCF
%maxcore 5000
%tddft
    Mode sTDDFT
    Ethresh 5.0
    maxcore 5000
end

%pal
  nprocs 6
  end
* xyz 0 1
   C        0.63758         1.45857         0.91398
   C       -0.07409         1.05767         2.02942
   C       -0.77364        -0.13410         2.00691
   F       -1.46933        -0.46063         3.11496
   C       -0.80390        -0.97357         0.88672
   C       -0.08425        -0.54712        -0.23466
   C        0.61447         0.64052        -0.20353
   F        1.30519         1.01634        -1.29855
   C       -1.53622        -2.22263         0.85100
   C       -2.02654        -2.83946        -0.26724
   C       -2.68635        -4.05321         0.11771
   C       -2.53419        -4.11933         1.56713
   C       -1.86369        -3.04488         2.01587
   F       -3.00181        -5.13044         2.31748
   C       -3.33308        -4.96225        -0.68586
   C       -3.99639        -6.15918        -0.30259
   C       -4.51682        -6.77248        -1.42472
   C       -4.18070        -5.94481        -2.58940
   C       -3.48595        -4.88957        -2.14490
   F       -2.98772        -3.89646        -2.89233
   C       -5.24757        -7.97582        -1.53072
   C       -5.55722        -8.78951        -0.48082
   C       -6.27719        -9.99811        -0.57267
   N       -6.51185       -10.76981         0.54969
   C       -7.20785       -11.87550         0.18267
   C       -7.77566       -13.04990         0.65052
   C       -8.34118       -13.68443        -0.47023
   N       -8.12122       -12.90510        -1.59045
   C       -7.42734       -11.79739        -1.22286
   C       -6.84805       -10.63039        -1.69309
   C       -9.03007       -14.91193        -0.56743
   C       -9.25971       -15.76578         0.47060
   C       -9.93180       -17.00130         0.37097
   C      -10.13779       -17.89040         1.40880
   C      -10.83791       -19.02679         0.92568
   C      -11.05279       -18.76056        -0.50052
   C      -10.52476       -17.57641        -0.84102
   F      -11.68982       -19.60353        -1.32459
   C      -11.23399       -20.15104         1.61634
   C      -11.93333       -21.29235         1.12608
   C      -12.11770       -22.18920         2.15338
   C      -11.52220       -21.62319         3.36677
   C      -11.00994       -20.42777         3.03543
   F      -10.37492       -19.58297         3.86180
   C      -12.77325       -23.44502         2.03785
   C      -12.92832       -24.33075         3.04652
   C      -13.58311       -25.61298         2.95681
   C      -14.21559       -26.08858         1.80274
   C      -14.81634       -27.32910         1.80368
   F      -15.41800       -27.75586         0.67457
   C      -14.82761       -28.15313         2.91712
   C      -14.20933       -27.70214         4.06989
   C      -13.60765       -26.46036         4.07520
   F      -13.01319       -26.05134         5.21573
   H        1.19692         2.37951         0.90264
   H       -0.09605         1.66155         2.92261
   H       -0.05780        -1.15610        -1.12315
   H       -1.97589        -2.47453        -1.27356
   H       -1.59719        -2.82839         3.03072
   H       -4.07016        -6.50794         0.70766
   H       -4.45296        -6.17048        -3.60223
   H       -5.57011        -8.25800        -2.52312
   H       -5.22573        -8.50588         0.50894
   H       -6.20185       -10.53241         1.47639
   H       -7.79510       -13.42041         1.65471
   H       -8.42507       -13.14447        -2.51850
   H       -6.82596       -10.26191        -2.69808
   H       -9.38375       -15.17846        -1.55438
   H       -8.89909       -15.50209         1.45508
   H       -9.81686       -17.75160         2.42234
   H      -10.53408       -17.12732        -1.81431
   H      -12.25899       -21.42345         0.11281
   H      -11.50517       -22.08383         4.33426
   H      -13.15472       -23.67017         1.05105
   H      -12.52805       -24.08993         4.02064
   H      -14.24522       -25.49499         0.90387
   H      -15.30826       -29.11651         2.87457
   H      -14.18936       -28.30415         4.96397
*
