# ORCA input file
# SCF done       -165.477747539123          0.000726209369
! CAM-B3LYP def2-SVP def2/J RIJCOSX Grid4 TightSCF
%maxcore 5000
%tddft
    Mode sTDDFT
    Ethresh 5.0
    maxcore 5000
end

%pal
  nprocs 6
  end
* xyz 0 1
   C       -2.36743        -4.00187         6.11049
   C       -2.51225        -3.84299         4.75755
   F       -3.59436        -4.33859         4.13879
   C       -1.56134        -3.17208         3.97067
   F       -1.78213        -3.05812         2.63733
   C       -0.39572        -2.61094         4.48085
   C       -0.23588        -2.76101         5.87307
   C       -1.20957        -3.44939         6.66706
   N       -0.77256        -3.42150         7.93529
   N        0.35500        -2.77235         7.88114
   N        0.72892        -2.35400         6.70733
   C        1.15071        -2.51708         9.04153
   N        0.45139        -1.97470         3.60588
   C        1.67084        -1.39342         3.74063
   S        2.58028        -1.35598         5.20676
   C        3.85309        -0.50919         4.37826
   N        4.97715        -0.16375         5.12506
   O        5.88212         0.43122         4.56539
   O        4.97156        -0.48938         6.30416
   C        3.58563        -0.26627         3.06010
   C        2.33159        -0.76856         2.65939
   C        1.79738        -0.66453         1.33589
   C        2.40214        -0.02544         0.29899
   C        1.84291         0.03702        -0.99214
   C        2.41379         0.67341        -2.06381
   C        3.62936         1.40177        -2.14303
   C        3.90110         1.90735        -3.37510
   C        2.92034         1.61135        -4.35188
   S        1.63036         0.66531        -3.63840
   C        2.92106         1.97183        -5.68142
   C        3.89382         2.72992        -6.37672
   C        3.62467         2.91173        -7.69666
   C        2.41468         2.30628        -8.13073
   S        1.63274         1.49312        -6.77127
   C        1.90988         2.31917        -9.39310
   N        0.71444         1.75841        -9.73444
   C        0.25579         1.55005       -10.99510
   S       -1.45856         1.51570       -11.28070
   C       -1.15530         1.31339       -12.98010
   N       -2.26303         1.17843       -13.81741
   O       -2.06228         1.03454       -15.01055
   O       -3.36100         1.21562       -13.28203
   C        0.17752         1.27747       -13.29497
   C        1.01042         1.39337       -12.16755
   C        2.44048         1.22886       -12.15935
   C        3.25779         1.35958       -13.21751
   C        4.68242         1.15886       -13.12623
   C        5.49733         1.24958       -14.24430
   F        4.94137         1.52418       -15.43880
   C        6.89460         1.06624       -14.20581
   F        7.57313         1.17725       -15.35989
   C        7.57113         0.78399       -13.05009
   C        6.79002         0.68677       -11.89317
   C        5.37203         0.87010       -11.92244
   N        4.93225         0.72020       -10.66274
   N        6.00895         0.46629        -9.96798
   N        7.13483         0.43174       -10.62136
   C        5.95196         0.22166        -8.55979
   H       -3.10093        -4.51611         6.70479
   H        0.63870        -1.81170         9.69723
   H        2.09916        -2.09742         8.71322
   H        1.31068        -3.44677         9.58618
   H        0.09320        -1.95766         2.65565
   H        4.27702         0.25123         2.42217
   H        0.83949        -1.12821         1.13530
   H        3.35291         0.45909         0.45610
   H        0.89415        -0.45797        -1.15201
   H        4.26914         1.53504        -1.28973
   H        4.77787         2.48410        -3.60961
   H        4.76258         3.12041        -5.87783
   H        4.24417         3.46457        -8.38039
   H        2.45817         2.80768       -10.18310
   H        0.08814         1.53356        -8.96927
   H        0.52497         1.13117       -14.30113
   H        2.87931         0.94434       -11.21416
   H        2.87976         1.64196       -14.18931
   H        8.63785         0.64530       -13.03513
   H        6.97235         0.13779        -8.19292
   H        5.40913        -0.70482        -8.36476
   H        5.43084         1.04204        -8.06307
*
