# ORCA input file
# SCF done       -212.470770398155          0.000272972542
! CAM-B3LYP def2-SVP def2/J RIJCOSX Grid4 TightSCF
%maxcore 5000
%tddft
    Mode sTDDFT
    Ethresh 5.0
    maxcore 5000
end

%pal
  nprocs 6
  end
* xyz 0 1
   C       -6.23657       -13.09557         3.51107
   C       -7.14401       -13.23939         4.55042
   F       -7.58734       -14.46268         4.85781
   C       -7.59991       -12.14187         5.28243
   F       -8.47952       -12.32782         6.27242
   C       -7.14696       -10.86322         4.99692
   C       -6.23580       -10.72077         3.96924
   C       -5.78042       -11.82029         3.22007
   C       -4.85374       -11.34282         2.19396
   C       -4.49351       -12.03813         1.06889
   C       -4.80612       -13.39361         0.84121
   N       -4.99351       -14.50285         0.61346
   C       -3.79397       -11.47498        -0.01599
   N       -3.22724       -11.07063        -0.92936
   C       -4.58160        -9.95521         2.47478
   C       -5.57457        -9.48707         3.48405
   O       -5.76068        -8.35351         3.85143
   C       -3.60238        -9.09434         2.07098
   C       -2.35140        -9.34934         1.46089
   C       -1.66923        -8.28669         0.80741
   C       -0.41949        -8.48084         0.13648
   N        0.16959        -7.45850        -0.48991
   C       -0.41831        -6.28295        -0.49916
   C       -1.67064        -6.09100         0.16250
   N       -2.25343        -7.07822         0.79716
   C       -2.28865        -4.81301         0.15160
   N       -2.75739        -3.76935         0.11636
   C        0.21068        -5.20098        -1.16495
   N        0.68742        -4.30818        -1.70067
   C        0.22183        -9.76287         0.06578
   C       -0.41741       -10.79760         0.80014
   C       -1.65904       -10.58165         1.50530
   N       -2.02426       -11.65819         2.20066
   S       -0.93321       -12.82045         1.99172
   N        0.05424       -12.02245         1.00895
   C        1.44088        -9.85539        -0.61049
   C        2.12684       -10.97558        -1.05234
   C        1.69047       -12.29318        -1.29822
   C        2.65665       -13.10172        -1.83040
   C        3.90154       -12.46329        -1.99363
   S        3.80381       -10.79712        -1.51893
   C        5.10122       -13.02022        -2.44165
   C        5.32224       -14.31062        -2.95077
   C        6.62948       -14.52566        -3.28761
   C        7.49210       -13.43493        -3.02379
   S        6.58261       -12.09902        -2.37440
   C        8.85702       -13.50915        -3.25732
   C        9.91178       -12.64061        -2.97562
   C        9.82446       -11.37936        -2.31330
   C       10.99852       -10.64837        -1.90564
   N       10.85763        -9.44132        -1.34236
   C        9.65657        -8.98059        -1.07572
   C        8.49795        -9.73861        -1.39391
   N        8.62413       -10.88880        -2.03429
   C        7.20729        -9.26747        -1.06256
   N        6.17567        -8.85866        -0.77497
   C        9.56536        -7.71402        -0.44216
   N        9.50860        -6.70827         0.10155
   C       12.30942       -11.14809        -2.10265
   C       12.40315       -12.32833        -2.87646
   C       11.23685       -13.06149        -3.29294
   N       11.55825       -14.16685        -3.95612
   S       13.16172       -14.27471        -4.05277
   N       13.52804       -12.93212        -3.25162
   C       13.48007       -10.51425        -1.61497
   C       13.62286        -9.65375        -0.56706
   C       14.82782        -8.77843        -0.50063
   O       15.84195        -8.88679        -1.14519
   C       14.47964        -7.72673         0.48228
   C       13.23504        -8.02437         1.06642
   C       12.67057        -7.15852         1.98866
   C       13.37871        -6.01191         2.31760
   C       14.62324        -5.73209         1.74905
   C       15.18763        -6.58936         0.81751
   F       15.27635        -4.62075         2.10463
   F       12.85795        -5.15769         3.20116
   C       12.76182        -9.30289         0.53996
   C       11.82959       -10.10442         1.14615
   C       11.52132       -11.41138         0.72353
   N       11.21712       -12.47285         0.40666
   C       11.06641        -9.72524         2.27011
   N       10.39163        -9.47533         3.16377
   H       -5.91038       -13.97279         2.97650
   H       -7.49706       -10.01431         5.56233
   H       -3.78892        -8.04859         2.29926
   H        1.90688        -8.89809        -0.81555
   H        0.67989       -12.60181        -1.11145
   H        2.50216       -14.13316        -2.09079
   H        4.53941       -15.03788        -3.06998
   H        7.00288       -15.44529        -3.70253
   H        9.18445       -14.43783        -3.71278
   H       14.38273       -10.71293        -2.18460
   H       11.70661        -7.32633         2.44077
   H       16.14570        -6.36900         0.37425
*
