# ORCA input file
# SCF done       -185.578639596731          0.000402204524
! CAM-B3LYP def2-SVP def2/J RIJCOSX Grid4 TightSCF
%maxcore 5000
%tddft
    Mode sTDDFT
    Ethresh 5.0
    maxcore 5000
end

%pal
  nprocs 6
  end
* xyz 0 1
   C       -6.42101         0.58498         7.79765
   C       -6.40074        -0.77605         7.58503
   C       -5.62926        -1.68154         8.33964
   N       -5.02810        -2.47734         8.91023
   C       -7.13646        -1.47975         6.61228
   N       -7.69547        -2.15071         5.86329
   C       -5.66939         1.28408         8.83854
   C       -5.96835         2.66664         8.76324
   C       -5.42032         3.59076         9.61719
   C       -4.53226         3.12982        10.59608
   C       -4.23933         1.74830        10.66355
   C       -4.79449         0.81263         9.79798
   S       -3.12087         1.39370        11.94584
   C       -3.06394         3.08443        12.36779
   C       -3.84067         3.87509        11.59013
  Br       -1.98434         3.64594        13.79574
   C       -6.92583         2.89775         7.65990
   O       -7.39427         3.96770         7.32310
   C       -7.18024         1.56890         7.07313
   C       -8.01835         1.32762         6.00337
   C       -8.77969         2.27632         5.33080
   C       -9.62807         1.92382         4.29573
   C      -10.50686         2.75741         3.57034
   C      -11.26415         2.09841         2.64166
   C      -11.00889         0.71495         2.58685
   S       -9.76884         0.27371         3.73595
   C      -11.60745        -0.26973         1.81572
   C      -12.69727        -0.18298         0.92473
   C      -13.06984        -1.38734         0.40457
   C      -12.29690        -2.48759         0.85661
   S      -11.05448        -1.91766         1.94628
   C      -12.44965        -3.78801         0.43542
   C      -11.73299        -4.94088         0.79851
   S      -11.72301        -6.24559        -0.36224
   C      -10.59910        -7.16251         0.58468
   C      -10.28128        -6.48424         1.77737
   C      -10.95041        -5.25504         1.91956
   C      -11.04801        -4.47877         3.16369
   C      -12.20033        -4.33859         3.80261
   O       -9.43762        -7.10049         2.63498
   C       -8.92937        -6.41940         3.76464
   C      -10.17676        -8.42058         0.11001
   C       -9.23073        -9.21825         0.67685
   C       -8.87137       -10.48759         0.17373
   S       -9.73665       -11.26335        -1.12067
   C       -8.70965       -12.66552        -1.06712
   C       -7.74736       -12.52402        -0.06021
   C       -7.82708       -11.29896         0.62671
   O       -6.96837       -10.98688         1.60989
   C       -6.78535       -13.50975         0.22329
   N       -6.01072       -14.32017         0.46080
   C       -8.91276       -13.83341        -1.82658
   C       -9.73179       -14.04711        -2.89681
   C      -10.41521       -13.15147        -3.80116
   C       -9.94834       -11.94050        -4.24546
   C      -10.62080       -11.13868        -5.18770
   N      -11.14498       -10.44125        -5.93398
   C       -8.69237       -11.41911        -3.87326
   N       -7.65739       -10.98756        -3.62789
   C      -11.53015       -13.89158        -4.38277
   C      -11.38166       -15.26271        -4.05321
   C      -10.19539       -15.43203        -3.18778
   O       -9.73146       -16.46094        -2.75695
   C      -12.25847       -16.22413        -4.49281
   C      -13.33750       -15.81099        -5.28207
   C      -13.48254       -14.43795        -5.59432
   C      -12.58957       -13.46568        -5.15945
   S      -14.89137       -14.14993        -6.56889
   C      -15.26005       -15.85439        -6.54768
   C      -14.37548       -16.60221        -5.84652
  Br      -16.77948       -16.48287        -7.44915
   H       -5.66859         4.63734         9.53513
   H       -4.53822        -0.22929         9.89172
   H       -3.92400         4.93973        11.71093
   H       -8.10856         0.30507         5.65623
   H       -8.72992         3.31184         5.63345
   H      -10.56360         3.81376         3.76393
   H      -11.99116         2.57089         2.00551
   H      -13.18175         0.75087         0.70368
   H      -13.88424        -1.52420        -0.28476
   H      -13.16899        -3.93424        -0.36216
   H      -10.14827        -4.03006         3.55965
   H      -13.11205        -4.78086         3.43548
   H      -12.26774        -3.77750         4.71802
   H       -8.25258        -7.12588         4.24430
   H       -9.72383        -6.15076         4.46357
   H       -8.36975        -5.52775         3.47403
   H      -10.65516        -8.75942        -0.80091
   H       -8.72132        -8.86958         1.56344
   H       -7.14041       -10.09977         1.94978
   H       -8.42077       -14.72229        -1.43968
   H      -12.11836       -17.26228        -4.23592
   H      -12.73988       -12.42991        -5.41612
   H      -14.45023       -17.66789        -5.72966
*
