# ORCA input file
# SCF done       -186.417995315386          0.000695634223
! CAM-B3LYP def2-SVP def2/J RIJCOSX Grid4 TightSCF
%maxcore 5000
%tddft
    Mode sTDDFT
    Ethresh 5.0
    maxcore 5000
end

%pal
  nprocs 6
  end
* xyz 0 1
   C      -15.75886         0.18441         2.37135
   C      -15.70944        -1.11746         1.92788
   C      -16.01883        -2.23529         2.72678
   N      -16.25025        -3.18806         3.32614
   C      -15.30791        -1.53674         0.64578
   N      -14.96847        -1.98237        -0.35819
   C      -16.10427         0.58958         3.73234
   C      -15.99746         1.99677         3.82236
   C      -16.25458         2.69293         4.97683
   C      -16.61198         1.95968         6.11200
   C      -16.70651         0.55192         6.01937
   C      -16.46381        -0.14970         4.84387
   S      -17.15193        -0.15885         7.54337
   C      -17.19841         1.42481         8.27243
   C      -16.90062         2.43434         7.42128
  Br      -17.63234         1.59784        10.09088
   C      -15.56439         2.53924         2.51842
   O      -15.36622         3.71526         2.28116
   C      -15.43775         1.37323         1.62151
   C      -15.04455         1.43928         0.30193
   C      -14.61210         2.62337        -0.30334
   C      -14.10756         2.71084        -1.57261
   C      -13.54178         3.91907        -2.02291
   O      -13.47977         4.97804        -1.17705
   C      -12.83148         6.00146        -1.78721
   C      -12.47914         5.59975        -3.07575
   C      -12.92693         4.27440        -3.22782
   O      -12.78554         3.48922        -4.31110
   O      -11.83964         6.27981        -4.06550
   C      -12.66281         7.17161        -1.00833
   C      -11.94346         8.29218        -1.27554
   C      -11.86991         9.35538        -0.34152
   C      -11.12130        10.47082        -0.50158
   N      -11.07204        11.44652         0.44809
   C      -10.36265        12.59422         0.39585
   S       -9.49591        13.03390        -1.04476
   C       -9.06164        14.54630        -0.30685
   N       -8.27582        15.42025        -1.05498
   O       -7.96887        16.48726        -0.55146
   O       -7.95255        15.04604        -2.17303
   C       -9.55607        14.69076         0.95998
   C      -10.29248        13.57284         1.40617
   C      -10.86011        13.52641         2.71755
   C      -11.28331        12.44171         3.42509
   C      -11.84458        12.53186         4.71009
   C      -12.28554        11.45619         5.44243
   C      -12.84100        11.48326         6.74264
   C      -13.19425        10.25951         7.23000
   C      -12.94501         9.19253         6.34399
   S      -12.23989         9.79747         4.85821
   C      -13.18632         7.84477         6.54616
   C      -13.71879         7.22446         7.69677
   C      -13.82029         5.86958         7.59311
   C      -13.38082         5.33415         6.35732
   S      -12.83185         6.64677         5.32574
   C      -13.38482         3.99972         6.03105
   C      -12.99750         3.37722         4.83055
   C      -12.49991         3.99910         3.62901
   C      -12.28304         3.02629         2.68195
   C      -11.82239         3.11868         1.34913
   C      -11.77356         1.96718         0.61748
   C      -11.43931         1.72120        -0.75149
   C      -11.67967         0.39003        -1.03617
   C      -12.12720        -0.24878         0.16340
   C      -12.18756         0.69129         1.18089
   C      -12.59035         0.58598         2.52219
   C      -12.64900         1.74443         3.26500
   C      -13.06978         2.00111         4.59220
   C      -11.53269        -0.22957        -2.33147
   C      -11.99993        -1.43238        -2.65495
   H      -16.16907         3.76769         5.00542
   H      -16.55638        -1.22268         4.82692
   H      -16.88580         3.47234         7.70006
   H      -15.02441         0.53541        -0.29236
   H      -14.61514         3.52020         0.29778
   H      -14.09453         1.87104        -2.25069
   H      -12.34212         3.99984        -5.00216
   H      -11.71704         7.19759        -3.80377
   H      -13.17119         7.10939        -0.05468
   H      -11.37827         8.40490        -2.19065
   H      -12.44652         9.24329         0.56780
   H      -10.51309        10.63743        -1.37864
   H      -11.65831        11.31736         1.26568
   H       -9.37286        15.56939         1.55184
   H      -10.91621        14.48914         3.20883
   H      -11.15663        11.43549         3.04577
   H      -11.94643        13.51067         5.15851
   H      -12.95861        12.40789         7.27934
   H      -13.62722        10.09981         8.20114
   H      -14.00680         7.78687         8.56651
   H      -14.19640         5.23073         8.37336
   H      -13.74921         3.33380         6.80547
   H      -12.33552         5.05066         3.49197
   H      -11.54805         4.07741         0.93337
   H      -11.06861         2.45915        -1.43868
   H      -12.37470        -1.29020         0.25189
   H      -12.86018        -0.37271         2.94367
   H      -13.39849         1.25861         5.29679
   H      -11.02536         0.37422        -3.07382
   H      -12.54225        -2.04365        -1.95454
   H      -11.87264        -1.83634        -3.64440
*
