# ORCA input file
# SCF done       -177.518855249519          0.000566345162
! CAM-B3LYP def2-SVP def2/J RIJCOSX Grid4 TightSCF
%maxcore 5000
%tddft
    Mode sTDDFT
    Ethresh 5.0
    maxcore 5000
end

%pal
  nprocs 6
  end
* xyz 0 1
   C        2.38964        -6.71545        -9.62828
   C        3.50909        -6.06523       -10.06735
   F        3.75924        -5.96493       -11.37911
   C        4.41332        -5.49411        -9.14978
   F        5.50437        -4.86333        -9.60647
   C        4.18417        -5.58034        -7.80503
   C        3.03981        -6.24284        -7.32150
   C        2.12443        -6.82181        -8.24795
   C        0.97205        -7.49589        -7.78413
   C        0.73901        -7.58368        -6.43551
   C        1.65863        -7.00061        -5.51869
   C        2.78368        -6.35068        -5.93716
   C        1.20405        -7.24478        -4.14048
   O        1.80854        -6.99650        -3.12063
   C       -0.06980        -8.00642        -4.26943
   C       -0.34401        -8.20249        -5.68252
   C       -1.46497        -8.78473        -6.21333
   C       -2.53768        -9.29611        -5.45291
   N       -3.44928        -9.71375        -4.89400
   C       -1.70257        -8.92245        -7.59679
   N       -1.94530        -9.06625        -8.70944
   C       -0.71858        -8.55723        -3.21573
   C       -0.54263        -8.14460        -1.84602
   C       -0.56548        -6.82516        -1.42957
   C       -0.69089        -5.71396        -2.25736
   N       -0.78838        -4.80892        -2.96001
   S       -0.51357        -6.66941         0.30754
   C       -0.42393        -8.39268         0.48052
   C       -0.46686        -9.04067        -0.74496
   C       -0.37032       -10.43373        -0.86860
   N       -0.27324       -11.57430        -0.95015
   N       -0.22629        -9.01843         1.66963
   C       -0.37547        -8.51719         2.94382
   S       -1.83609        -7.73661         3.45762
   C       -1.25482        -7.79012         5.09082
   N       -2.05963        -7.21350         6.08373
   O       -1.66528        -7.26549         7.23247
   O       -3.10146        -6.70082         5.71476
   C       -0.02235        -8.37296         5.22400
   C        0.51899        -8.76980         3.98631
   C        1.86958        -9.22120         3.74711
   C        2.51878        -8.77182         2.64228
   C        3.81793        -9.02771         2.17339
   C        4.28900        -8.34542         1.07332
   C        5.52785        -8.46229         0.40273
   C        5.67408        -7.61666        -0.66171
   C        4.56912        -6.77229        -0.87995
   S        3.31630        -7.10760         0.28636
   C        4.37799        -5.77234        -1.81903
   C        5.20243        -5.40208        -2.90181
   C        4.68361        -4.39123        -3.65659
   C        3.43073        -3.90252        -3.20624
   S        2.95573        -4.76899        -1.76086
   C        2.67499        -2.93850        -3.82820
   C        1.43703        -2.40971        -3.41716
   C        0.72342        -2.62132        -2.23037
   C       -0.46956        -1.86229        -2.27886
   C       -1.50218        -1.72943        -1.37646
   C       -2.56709        -0.88589        -1.72502
   C       -3.72868        -0.54027        -1.04784
   C       -4.48404         0.37047        -1.85047
   C       -3.78709         0.58376        -3.02733
   C       -2.58030        -0.18032        -2.99610
   C       -1.56015        -0.31436        -3.89874
   C       -0.48535        -1.16105        -3.55072
   C        0.67182        -1.49703        -4.22302
   C       -5.74972         0.97663        -1.51427
   C       -6.42660         0.77849        -0.38614
   H        1.70845        -7.14736       -10.34468
   H        4.88763        -5.14237        -7.11457
   H        0.30365        -7.93273        -8.50830
   H        3.46919        -5.92319        -5.22130
   H       -1.43450        -9.35563        -3.36755
   H        0.22605        -9.92599         1.61126
   H        0.47949        -8.46521         6.17001
   H        2.35663        -9.82646         4.49544
   H        1.97752        -8.06072         2.02869
   H        4.45156        -9.75378         2.65987
   H        6.27397        -9.16823         0.72258
   H        6.55303        -7.57332        -1.28056
   H        6.13437        -5.89884        -3.10609
   H        5.16559        -3.97186        -4.52380
   H        3.07542        -2.54864        -4.75712
   H        1.03109        -3.21861        -1.39451
   H       -1.49858        -2.25538        -0.43245
   H       -4.01539        -0.89727        -0.07583
   H       -4.09437         1.21930        -3.83782
   H       -1.56410         0.20588        -4.84643
   H        0.96751        -1.15137        -5.19796
   H       -6.15021         1.64233        -2.26884
   H       -6.07114         0.12403         0.39098
   H       -7.36892         1.26483        -0.20326
*
