# ORCA input file
# SCF done       -162.338108760493          0.000647472978
! CAM-B3LYP def2-SVP def2/J RIJCOSX Grid4 TightSCF
%maxcore 5000
%tddft
    Mode sTDDFT
    Ethresh 5.0
    maxcore 5000
end

%pal
  nprocs 6
  end
* xyz 0 1
   C       -2.46751         5.92747         4.41848
   C       -2.90251         7.06565         3.79705
   F       -2.74785         8.25785         4.38997
   C       -3.51721         7.00070         2.53256
   F       -3.93787         8.13131         1.94495
   C       -3.68811         5.79804         1.90420
   C       -3.25065         4.60968         2.51817
   C       -2.62997         4.67324         3.79876
   C       -2.18619         3.49078         4.43731
   C       -2.35817         2.28375         3.81465
   C       -2.97742         2.23051         2.53186
   C       -3.41538         3.35342         1.89137
   C       -3.03838         0.83029         2.09703
   O       -3.49833         0.39920         1.03838
   C       -2.44006         0.03932         3.16961
   C       -2.01318         0.92410         4.22530
   C       -1.39543         0.57545         5.40149
   C       -1.00341         1.49634         6.39205
   N       -0.66378         2.20162         7.23261
   C       -1.07411        -0.74755         5.76206
   N       -0.79168        -1.80937         6.09675
   C       -2.35272        -1.33463         3.08946
   N       -2.82202        -1.96063         2.00523
   C       -2.83305        -3.28854         1.74189
   S       -2.17561        -4.45386         2.84923
   C       -2.59642        -5.71171         1.73056
   N       -2.29510        -7.02938         2.08319
   O       -2.59053        -7.90889         1.29112
   O       -1.75305        -7.20183         3.16318
   C       -3.19960        -5.25633         0.58686
   C       -3.35090        -3.85881         0.56873
   C       -3.94274        -3.07491        -0.48575
   C       -4.40549        -3.56532        -1.64811
   C       -4.99500        -2.78993        -2.71301
   C       -4.71905        -1.52806        -3.06737
   C       -3.67500        -0.66182        -2.43704
   C       -5.44094        -0.85374        -4.21828
   N       -6.42409        -1.65389        -4.89208
   C       -7.70803        -1.74467        -4.48391
   C       -8.57404        -2.70155        -4.91471
   C       -9.93998        -2.81274        -4.58441
   C      -10.75274        -1.96637        -3.87376
   C      -12.12393        -2.20503        -3.60141
   C      -12.75309        -1.21450        -2.91285
   C      -11.92091        -0.11747        -2.59588
   S      -10.29992        -0.40576        -3.19204
   C      -12.26309         1.04354        -1.93367
   C      -13.52144         1.38743        -1.38725
   C      -13.56413         2.61526        -0.80519
   C      -12.33887         3.33190        -0.85707
   S      -11.12264         2.34790        -1.67320
   C      -12.03588         4.58458        -0.40233
   C      -12.94614         5.43264         0.28110
   C      -12.69579         6.69849         0.67620
   C      -11.41904         7.42936         0.39831
   C      -13.72460         7.48283         1.44870
   N      -14.73797         6.65016         2.04010
   C      -16.01278         7.11196         2.26613
   C      -16.86281         6.60140         3.15022
   H       -1.99896         5.99492         5.38782
   H       -4.16097         5.76573         0.93510
   H       -1.72181         3.57240         5.40647
   H       -3.88375         3.28697         0.92109
   H       -1.91900        -1.94092         3.87316
   H       -3.22129        -1.31262         1.30126
   H       -3.51575        -5.92638        -0.19069
   H       -4.04620        -2.01879        -0.29501
   H       -4.38548        -4.63294        -1.82219
   H       -5.72603        -3.33774        -3.29520
   H       -2.84444        -1.26153        -2.07155
   H       -4.08440        -0.10243        -1.59607
   H       -3.29712         0.06014        -3.15867
   H       -4.69766        -0.52785        -4.95591
   H       -5.93636         0.04354        -3.83126
   H       -6.07326        -2.39823        -5.47817
   H       -8.01824        -0.97520        -3.79438
   H       -8.18591        -3.47074        -5.57133
   H      -10.43547        -3.70172        -4.95574
   H      -12.60414        -3.10987        -3.93136
   H      -13.79123        -1.23703        -2.63445
   H      -14.36045         0.71647        -1.44004
   H      -14.44357         3.03059        -0.34731
   H      -11.02990         4.94147        -0.56747
   H      -13.92265         5.02765         0.50556
   H      -10.65720         7.15851         1.13091
   H      -11.57542         8.50408         0.45996
   H      -11.03473         7.19117        -0.59003
   H      -14.21989         8.18576         0.76691
   H      -13.19993         8.09030         2.20729
   H      -14.39562         5.99957         2.73339
   H      -16.31271         7.91538         1.60597
   H      -16.57945         5.80006         3.81123
   H      -17.87097         6.96074         3.22549
*
