# ORCA input file
# SCF done       -142.187894198887          0.000662603129
! CAM-B3LYP def2-SVP def2/J RIJCOSX Grid4 TightSCF
%maxcore 5000
%tddft
    Mode sTDDFT
    Ethresh 5.0
    maxcore 5000
end

%pal
  nprocs 6
  end
* xyz 0 1
   C        2.01864        -4.58359        -0.65701
   C        2.04734        -3.66658         0.36147
   C        1.11909        -3.81056         1.48826
   O        0.24755        -4.63900         1.54388
   O        1.31804        -2.92511         2.48843
   C        3.02770        -2.63708         0.12866
   C        3.68333        -2.83353        -1.05618
   S        3.14139        -4.24061        -1.88319
   N        3.20099        -1.60474         1.02390
   C        4.07780        -0.57844         1.01484
   S        5.35300        -0.43180        -0.15075
   C        5.96121         0.96851         0.68073
   N        7.08313         1.59519         0.14671
   O        7.51914         2.57711         0.72373
   O        7.55098         1.10804        -0.87274
   C        5.22450         1.28992         1.78756
   C        4.12399         0.43571         1.99278
   C        3.22650         0.64372         3.09283
   C        1.94390         0.22383         3.23608
   C        1.18349         0.48740         4.39581
   C       -0.09587         0.05060         4.60271
   C       -0.89905         0.26821         5.75162
   C       -2.12600        -0.31564         5.70205
   C       -2.37796        -1.03414         4.50998
   S       -0.99327        -0.92611         3.43944
   C       -3.50645        -1.74698         4.16965
   C       -4.67646        -1.92661         4.94661
   C       -5.62497        -2.69926         4.35703
   C       -5.26377        -3.17738         3.06668
   S       -3.65705        -2.59490         2.64142
   C       -5.96935        -3.96375         2.20576
   N       -7.19286        -4.48750         2.51000
   C       -8.03306        -5.17362         1.69323
   S       -9.15465        -6.28025         2.43489
   C       -9.73558        -6.72764         0.86032
   N      -10.77267        -7.65936         0.80889
   O      -11.19995        -7.98236        -0.28474
   O      -11.17550        -8.08421         1.88256
   C       -9.10395        -6.06651        -0.15767
   C       -8.13112        -5.15217         0.29384
   C       -7.42861        -4.23129        -0.55828
   C       -7.33678        -4.34180        -1.89774
   C       -6.66867        -3.39410        -2.72409
   C       -6.56789        -3.40175        -4.10938
   C       -7.16778        -4.41963        -4.97395
   O       -7.80623        -5.37963        -4.61024
   O       -6.93617        -4.18240        -6.27675
   C       -5.82185        -2.30415        -4.61082
   C       -5.36649        -1.48695        -3.63280
   S       -5.83108        -2.02059        -2.06430
   H        1.37548        -5.43908        -0.71320
   H        0.63610        -3.04234         3.17062
   H        4.44655        -2.24144        -1.51434
   H        2.62632        -1.68441         1.85849
   H        5.46255         2.13047         2.41410
   H        3.63994         1.25729         3.88359
   H        1.42831        -0.30237         2.44485
   H        1.64544         1.06012         5.18893
   H       -0.53562         0.85048         6.57976
   H       -2.85654        -0.25206         6.48822
   H       -4.78279        -1.47992         5.91867
   H       -6.57393        -2.92562         4.81132
   H       -5.55483        -4.22670         1.24641
   H       -7.46236        -4.45422         3.48544
   H       -9.36688        -6.21791        -1.18856
   H       -6.98275        -3.36964        -0.07837
   H       -7.76492        -5.18133        -2.42482
   H       -7.35245        -4.87731        -6.80974
   H       -5.64463        -2.15073        -5.65910
   H       -4.78134        -0.59417        -3.72795
*
