# ORCA input file
# SCF done       -128.426581861164          0.000452919581
! CAM-B3LYP def2-SVP def2/J RIJCOSX Grid4 TightSCF
%maxcore 5000
%tddft
    Mode sTDDFT
    Ethresh 5.0
    maxcore 5000
end

%pal
  nprocs 6
  end
* xyz 0 1
   C        4.77995         2.70145        -1.67044
   C        5.66167         1.76159        -1.30727
   C        7.07600         1.91711        -1.10690
   C        7.71461         0.78573        -0.74399
   C        6.86614        -0.35606        -0.63100
   S        5.21148         0.07620        -0.99819
   C        7.23536        -1.63336        -0.29500
   C        8.53506        -2.11513         0.01572
   C        8.58003        -3.43985         0.28966
   C        7.31886        -4.10524         0.19843
   S        6.07079        -2.94312        -0.21345
   C        7.12094        -5.42203         0.48482
   C        5.91336        -6.17974         0.38248
   C        5.63059        -7.21232         1.27352
   C        6.43124        -7.60989         2.34136
   N        7.10624        -7.93359         3.21324
   S        4.10939        -7.98815         0.96817
   C        3.85767        -6.98242        -0.41275
   C        4.88113        -6.07413        -0.60062
   C        4.86698        -5.20747        -1.70987
   N        4.80386        -4.53539        -2.63649
   C        2.69699        -7.16373        -1.25716
   C        1.40304        -7.27066        -0.78498
   C        0.99489        -7.16436         0.54706
   N        0.66763        -7.06799         1.64256
   S        0.24904        -7.51914        -2.05544
   C        1.50477        -7.49526        -3.24191
   C        2.74955        -7.29346        -2.67350
   C        3.95314        -7.42383        -3.39270
   N        4.93087        -7.63800        -3.95067
   C        1.21434        -7.69579        -4.64148
   C        1.81851        -6.98722        -5.66750
   C        2.69316        -5.90454        -5.56094
   N        3.36994        -4.97907        -5.51021
   S        1.24981        -7.48072        -7.23619
   C        0.18381        -8.65972        -6.52957
   C        0.28096        -8.64179        -5.13232
   C       -0.45196        -9.51625        -4.31980
   N       -1.05079       -10.24241        -3.66142
   C       -0.65646        -9.50679        -7.26944
   C       -0.81170        -9.53083        -8.63078
   C       -1.68638       -10.39694        -9.34348
   C       -1.68191       -10.21234       -10.68789
   C       -0.80248        -9.18987       -11.12480
   S        0.02798        -8.47878        -9.74854
   C       -0.57990        -8.75235       -12.40774
   C       -1.19519        -9.23569       -13.60110
   C       -0.78991        -8.60927       -14.72528
   C        0.18520        -7.57649       -14.50995
   S        0.54223        -7.46560       -12.77786
   C        0.76407        -6.79230       -15.42763
   H        5.09744         3.71359        -1.84996
   H        3.73684         2.47785        -1.79837
   H        7.54753         2.87350        -1.24812
   H        8.77103         0.71787        -0.55429
   H        9.39209        -1.46592         0.02456
   H        9.47233        -3.98415         0.54348
   H        7.95936        -5.95439         0.91763
   H       -1.24737       -10.20572        -6.69079
   H       -2.28845       -11.12304        -8.82686
   H       -2.28359       -10.77667       -11.37716
   H       -1.91815       -10.03118       -13.57493
   H       -1.14146        -8.83261       -15.71679
   H        0.51696        -6.89126       -16.47004
   H        1.48621        -6.04382       -15.15746
*
