# ORCA input file
# SCF done       -185.263207757379          0.000755931294
! CAM-B3LYP def2-SVP def2/J RIJCOSX Grid4 TightSCF
%maxcore 5000
%tddft
    Mode sTDDFT
    Ethresh 5.0
    maxcore 5000
end

%pal
  nprocs 6
  end
* xyz 0 1
   C       -1.19670         1.06206         6.74591
   S       -2.29680         0.29905         5.48860
   C       -1.49361         1.17721         4.10659
   C       -0.07182         1.47474         4.58501
   C       -0.25321         2.00722         6.01569
   C        0.50493         2.55071         3.64715
   O        0.37637         3.73412         3.86403
   N        1.06693         2.05511         2.52843
   N        0.69725         0.24690         4.52401
   C        2.00100         0.17387         4.97724
   C        2.85396         1.19832         5.11415
   C        4.24924         1.07824         5.48957
   C        5.11035         2.14187         5.18351
   C        6.44825         2.05441         5.48558
   C        6.94224         0.93000         6.17047
   C        6.09718        -0.12047         6.49835
   C        4.76568        -0.04593         6.14321
   C        8.34259         1.14125         6.45263
   C        8.72419         2.39085         5.93132
   C        7.56380         3.03377         5.19975
   C        7.26200         4.45124         5.70538
   C        6.99328         4.48498         7.20509
   C        7.92898         3.04818         3.69564
   C        6.75963         3.28553         2.74815
   C       10.00789         2.84943         6.08550
   C       10.94910         2.06975         6.78838
   C       10.54914         0.82026         7.29363
   C        9.26395         0.35314         7.13046
   C       12.27572         2.58999         6.95770
   C       13.27913         2.02285         7.68263
   C       14.58186         2.52799         7.87797
   C       15.18797         3.64138         7.34891
   C       16.49936         4.07677         7.67529
   C       16.89111         5.22188         7.05194
   C       15.91355         5.75558         6.18369
   S       14.48703         4.74872         6.18066
   C       15.95575         6.91384         5.43193
   C       16.94827         7.91424         5.37969
   C       16.61593         8.97317         4.58954
   C       15.34418         8.86411         3.96731
   S       14.59831         7.34907         4.41416
   C       14.81587         9.77712         3.08558
   C       13.57863         9.73207         2.41990
   C       12.39976         9.02960         2.67720
   C       12.03176         8.46691         3.90388
   N       11.63615         8.09641         4.91729
   C       11.43048         9.20099         1.64776
   C       11.84669        10.10162         0.67927
   S       13.43826        10.70349         0.94728
   S       10.68003        10.43488        -0.56313
   C        9.61250         9.30853         0.21621
   C       10.12679         8.70902         1.35749
   C        9.22637         7.73173         1.86905
   C        9.48312         6.83368         2.91810
   N        9.65714         6.02282         3.71108
   C        8.06425         7.65024         1.12935
   S        8.03775         8.75883        -0.21110
   C        6.93047         6.74971         1.44618
   S        5.72147         7.62536         2.53022
   C        4.85995         8.26217         1.07121
   C        4.87726         7.15783         0.00199
   C        6.12329         6.26198         0.24361
   C        5.02659         7.79010        -1.39670
   O        5.46864         8.90019        -1.58170
   N        4.65971         6.96361        -2.39466
   N        3.66974         6.34732        -0.00235
   C        3.23699         5.74556         1.17952
   C        1.96386         5.50522         1.45656
   H       -0.66181         0.25038         7.23951
   H       -1.81526         1.57519         7.47907
   H       -2.03742         2.10080         3.90750
   H       -1.51694         0.53947         3.22496
   H       -0.67336         3.01151         5.95013
   H        0.70594         2.06647         6.53025
   H        1.25767         1.07083         2.45328
   H        1.50480         2.69584         1.88500
   H        0.13489        -0.56369         4.74976
   H        2.33041        -0.84219         5.14432
   H        2.52366         2.20471         4.89556
   H        4.70172         3.02229         4.70953
   H        6.47242        -0.98249         7.03042
   H        4.10567        -0.85926         6.40567
   H        6.39074         4.84502         5.17901
   H        8.11125         5.09458         5.47023
   H        6.14209         3.85541         7.45870
   H        6.77709         5.50240         7.52201
   H        7.85970         4.12895         7.75805
   H        8.38780         2.08809         3.44413
   H        8.68052         3.82661         3.55040
   H        6.06480         2.44916         2.77250
   H        7.13349         3.38620         1.72989
   H        6.22056         4.19132         3.01414
   H       10.30428         3.80780         5.68505
   H       11.26232         0.20526         7.82052
   H        8.97698        -0.60984         7.52725
   H       12.45268         3.53816         6.47028
   H       13.08261         1.09329         8.20019
   H       15.20689         1.95856         8.55659
   H       17.10839         3.53045         8.37462
   H       17.84769         5.69338         7.18969
   H       17.86755         7.83514         5.93234
   H       17.23803         9.83740         4.43591
   H       15.46449        10.59768         2.80500
   H        7.31277         5.91840         2.04199
   H        5.37665         9.15100         0.70409
   H        3.84544         8.52662         1.36375
   H        6.76150         6.24879        -0.64242
   H        5.77930         5.24309         0.42341
   H        4.29907         6.04618        -2.19773
   H        4.74688         7.27671        -3.34729
   H        2.90090         6.81171        -0.47349
   H        4.02672         5.43664         1.84727
   H        1.17430         5.82698         0.79672
   H        1.66261         5.00696         2.35815
*
