# ORCA input file
# SCF done       -150.248801027584          0.000359679627
! CAM-B3LYP def2-SVP def2/J RIJCOSX Grid4 TightSCF
%maxcore 5000
%tddft
    Mode sTDDFT
    Ethresh 5.0
    maxcore 5000
end

%pal
  nprocs 6
  end
* xyz 0 1
   C        1.57562         1.08383         0.35508
   S        0.75202        -0.41266         0.38193
   C        2.12362        -1.23084        -0.30042
   C        2.09778        -2.65087        -0.68954
   O        3.00834        -3.17108        -1.27482
   O        0.98594        -3.33732        -0.37953
   C        3.15945        -0.36438        -0.52297
   C        2.84103         0.96018        -0.14894
   O        3.76301         1.95591        -0.27892
   N        3.19906         3.26025        -0.23298
   C        3.85510         4.20837        -0.98199
   S        4.10079         5.77503        -0.27658
   C        4.90713         6.29324        -1.72092
   N        5.35109         7.61982        -1.78699
   O        5.93316         7.97037        -2.79573
   O        5.12142         8.32397        -0.81909
   C        5.00094         5.30598        -2.66169
   C        4.37906         4.09987        -2.27065
   C        4.34960         2.95082        -3.13676
   C        3.39484         1.99272        -3.17303
   C        3.50087         0.84641        -3.99178
   C        2.59830        -0.17696        -4.03591
   C        2.74993        -1.41209        -4.72128
   C        1.75198        -2.30468        -4.50159
   C        0.73417        -1.83088        -3.63825
   S        1.07059        -0.17625        -3.16389
   C       -0.35993        -2.52309        -3.17517
   C       -0.74409        -3.84657        -3.49925
   C       -1.86920        -4.27594        -2.87236
   C       -2.45068        -3.31683        -1.99855
   S       -1.49439        -1.83420        -2.02465
   C       -3.56630        -3.39176        -1.22139
   N       -4.37694        -4.48839        -1.16607
   C       -5.57560        -4.61293        -0.54205
   S       -6.15054        -6.22484        -0.21794
   C       -7.54242        -5.55872         0.57932
   N       -8.48805        -6.45021         1.08180
   O       -9.46731        -5.98613         1.64101
   O       -8.25973        -7.64028         0.92092
   C       -7.55039        -4.18901         0.59263
   C       -6.44213        -3.61954        -0.05903
   C       -6.26223        -2.20672        -0.27642
   C       -6.79049        -1.23698         0.49377
   C       -6.54148         0.15335         0.28467
   S       -7.39589         1.33141         1.22849
   C       -6.53912         2.64356         0.48485
   C       -6.74096         4.05835         0.82097
   O       -6.09135         4.92993         0.30647
   O       -7.68358         4.33661         1.73613
   C       -5.64070         2.17725        -0.44384
   C       -5.63565         0.77990        -0.56413
   O       -4.81679         0.08807        -1.39695
   H        1.06957         1.96975         0.68168
   H        0.31591        -2.79379         0.05923
   H        4.09997        -0.65768        -0.94884
   H        3.06848         3.54185         0.73694
   H        5.47464         5.45776        -3.61492
   H        5.17123         2.89093        -3.83840
   H        2.50901         2.07896        -2.55834
   H        4.39627         0.73793        -4.58954
   H        3.61564        -1.60402        -5.32952
   H        1.72695        -3.29710        -4.91241
   H       -0.17384        -4.44323        -4.18720
   H       -2.29082        -5.25580        -3.01289
   H       -3.83952        -2.55590        -0.60042
   H       -4.01769        -5.33291        -1.59411
   H       -8.35869        -3.62873         1.02525
   H       -5.67546        -1.92004        -1.13372
   H       -7.40978        -1.48037         1.34562
   H       -8.13495         3.54944         2.06988
   H       -5.01013         2.84056        -1.00991
   H       -4.23571         0.70420        -1.85991
*
