# ORCA input file
# SCF done       -244.787292421092          0.000901056472
! CAM-B3LYP def2-SVP def2/J RIJCOSX Grid4 TightSCF
%maxcore 5000
%tddft
    Mode sTDDFT
    Ethresh 5.0
    maxcore 5000
end

%pal
  nprocs 6
  end
* xyz 0 1
   C       -8.21057        -0.61857        -5.63225
   C       -6.90812        -1.04464        -5.61356
   C       -6.40014        -2.06719        -6.44212
   N       -5.92822        -2.88649        -7.09318
   C       -5.90045        -0.55764        -4.75385
   N       -5.02551        -0.22989        -4.08568
   C       -9.27373        -1.18455        -6.45078
   C      -10.49885        -0.58059        -6.08022
   C      -11.69505        -0.90523        -6.67250
   C      -11.68170        -1.87465        -7.68030
   C      -10.45142        -2.47094        -8.04751
   C       -9.24227        -2.14215        -7.44844
   S      -10.66111        -3.63716        -9.31880
   C      -12.37447        -3.31373        -9.33771
   C      -12.77163        -2.38106        -8.43989
  Br      -13.47665        -4.23660       -10.54230
   C      -10.26463         0.41018        -5.00912
   O      -11.11130         1.10608        -4.49382
   C       -8.79518         0.41050        -4.78488
   C       -8.07428         1.33635        -4.09388
   C       -8.51606         2.33644        -3.16592
   C       -7.72422         3.49522        -3.03566
   C       -8.09440         4.47908        -2.15627
   C       -9.26751         4.33389        -1.38811
   C      -10.02593         3.17326        -1.46908
   C       -9.64601         2.18215        -2.34889
   C       -9.46699         5.53944        -0.61854
   C       -8.42385         6.43530        -0.91278
   C       -7.42324         5.79945        -1.85490
   C       -6.11476         5.60345        -1.05137
   C       -5.02274         4.79800        -1.74260
   C       -7.19386         6.63936        -3.11932
   C       -8.49423         6.94857        -3.85259
   C       -8.38241         7.67874        -0.33343
   C       -9.39165         8.05849         0.56563
   C      -10.41595         7.14496         0.86128
   C      -10.46756         5.89817         0.27560
   C       -9.41028         9.34292         1.21817
   C       -8.63406        10.40533         0.91557
   C       -8.67072        11.64032         1.61583
   S       -7.66643        12.97179         1.08685
   C       -8.19078        14.03021         2.36519
   C       -9.11537        13.35811         3.16394
   C       -9.38168        12.02951         2.73402
   S      -10.54271        11.23402         3.75103
   C      -10.68358        12.66792         4.75556
   C      -11.62133        12.57555         5.87602
   O      -12.23330        11.54789         6.06901
   C      -11.76368        13.81036         6.73585
   C      -12.78204        13.60416         7.84747
   C       -9.87460        13.67895         4.31530
   F       -9.79144        14.87842         4.91196
   C       -7.71570        15.35393         2.52514
   C       -6.90524        15.98397         1.64579
   C       -6.39910        17.32516         1.77745
   C       -6.40198        18.00805         3.00455
   C       -5.92012        19.29110         3.06585
   C       -5.43586        19.93403         1.91269
   C       -5.40877        19.26342         0.69662
   C       -5.87661        17.96748         0.64398
   C       -5.05076        21.28092         2.26670
   C       -5.27420        21.46503         3.64538
   C       -5.76992        20.18519         4.27832
   C       -7.09273        20.37938         5.03256
   C       -8.20477        20.89710         4.12734
   C       -4.68851        19.53654         5.17616
   C       -4.22286        20.37027         6.36226
   C       -5.05899        22.69266         4.21909
   C       -4.60660        23.76538         3.42922
   C       -4.34843        23.55293         2.06550
   C       -4.56998        22.32319         1.48332
   C       -4.40906        25.04336         4.05404
   C       -4.33162        26.23860         3.41724
   C       -4.09591        27.43698         4.12517
   C       -3.95804        28.70980         3.65340
   C       -3.86928        29.27645         2.32505
   C       -3.38899        28.68420         1.18488
   C       -3.28574        29.34359        -0.05845
   N       -3.19520        29.81616        -1.10100
   C       -2.84225        27.38832         1.09490
   N       -2.35273        26.36135         0.93610
   C       -4.19515        30.69789         2.44118
   C       -4.25747        31.04343         3.81419
   C       -4.04646        29.83021         4.62655
   O       -3.99910        29.74531         5.83340
   C       -4.50832        32.32285         4.24599
   C       -4.72075        33.30869         3.27683
   C       -4.67558        32.95123         1.90844
   C       -4.41357        31.65825         1.47166
   S       -4.98327        34.31828         0.88075
   C       -5.15998        35.33824         2.28412
   C       -5.00001        34.69055         3.46232
  Br       -5.54330        37.16065         2.06088
   H      -12.61197        -0.42618        -6.36672
   H       -8.33122        -2.61992        -7.76762
   H      -13.79027        -2.06114        -8.31746
   H       -7.00770         1.36205        -4.28949
   H       -6.85333         3.60532        -3.66466
   H      -10.90486         3.04806        -0.85549
   H      -10.21434         1.26910        -2.39703
   H       -6.37124         5.10921        -0.11052
   H       -5.72672         6.59472        -0.80611
   H       -5.33901         3.77161        -1.90596
   H       -4.13779         4.77898        -1.11026
   H       -4.74410         5.23998        -2.69549
   H       -6.52569         6.09968        -3.79146
   H       -6.70326         7.57357        -2.83803
   H       -8.99463         6.02967        -4.15051
   H       -8.29096         7.53462        -4.74599
   H       -9.17069         7.51453        -3.21586
   H       -7.57397         8.35746        -0.55675
   H      -11.18433         7.43920         1.56136
   H      -11.26837         5.21351         0.51048
   H      -10.13259         9.44585         2.01725
   H       -7.93076        10.36401         0.09609
   H      -12.05699        14.64595         6.09516
   H      -10.78274        14.05334         7.15281
   H      -13.75621        13.37081         7.42525
   H      -12.86613        14.50077         8.45600
   H      -12.48315        12.77298         8.48105
   H       -8.06974        15.86481         3.40936
   H       -6.62749        15.45608         0.74094
   H       -6.76720        17.51749         3.89354
   H       -5.02577        19.74533        -0.19022
   H       -5.86227        17.43175        -0.29430
   H       -6.94001        21.08676         5.84853
   H       -7.39371        19.42468         5.46873
   H       -7.92939        21.85482         3.69072
   H       -9.12129        21.02961         4.69755
   H       -8.40083        20.19656         3.31860
   H       -3.82322        19.31026         4.54737
   H       -5.08724        18.58722         5.54069
   H       -3.72868        21.27823         6.02772
   H       -3.50844        19.79431         6.94655
   H       -5.05218        20.63525         7.01272
   H       -5.26722        22.86546         5.26462
   H       -3.94065        24.35685         1.47222
   H       -4.37398        22.17432         0.43235
   H       -4.32478        25.03488         5.13492
   H       -4.48161        26.28594         2.35103
   H       -4.07961        27.36375         5.20898
   H       -4.54136        32.55584         5.29871
   H       -4.39767        31.43613         0.41772
   H       -5.07598        35.16512         4.42356
*
