# ORCA input file
# SCF done       -221.269001334978          0.000748612392
! CAM-B3LYP def2-SVP def2/J RIJCOSX Grid4 TightSCF
%maxcore 5000
%tddft
    Mode sTDDFT
    Ethresh 5.0
    maxcore 5000
end

%pal
  nprocs 6
  end
* xyz 0 1
   C        1.93739        -1.41808         1.97609
   C        2.41027        -0.57484         2.94161
   F        3.52237         0.13882         2.71974
   C        1.75016        -0.45943         4.18061
   F        2.23613         0.37539         5.10341
   C        0.61897        -1.18462         4.43413
   C        0.10247        -2.05916         3.45918
   C        0.77542        -2.18056         2.20865
   C        0.28371        -3.06095         1.21895
   C       -0.84544        -3.79306         1.46967
   C       -1.51824        -3.66423         2.71939
   C       -1.06452        -2.82181         3.69476
   C       -2.68962        -4.56413         2.73279
   O       -3.53236        -4.66613         3.60488
   C       -2.59483        -5.34929         1.49250
   C       -1.56750        -4.76164         0.65400
   C       -1.40747        -4.97933        -0.68696
   C       -2.26817        -5.79320        -1.45486
   N       -2.97980        -6.39505        -2.12365
   C       -0.37869        -4.38396        -1.44461
   N        0.46577        -3.92735        -2.07349
   C       -3.20710        -6.54835         1.26447
   C       -4.30173        -7.12519         1.93813
   C       -4.79707        -8.39661         1.60418
   C       -4.01994        -9.29861         0.85970
   N       -3.30639       -10.03285         0.34211
   C       -6.04697        -8.66573         2.19257
   C       -6.45356        -7.60182         3.00713
   S       -5.32920        -6.30251         3.09385
   S       -7.99928        -7.82616         3.75569
   C       -8.13256        -9.35852         2.93814
   C       -7.03916        -9.68881         2.14973
   C       -7.23511       -10.92511         1.48343
   C       -6.37226       -11.42735         0.49447
   N       -5.70246       -11.82267        -0.34874
   C       -8.45318       -11.52163         1.79343
   S       -9.39967       -10.52674         2.88049
   C       -8.91102       -12.76673         1.25244
   C       -8.04349       -13.81211         1.11980
   C       -8.03298       -14.90427         0.20342
   C       -6.82110       -15.51472         0.09375
   C       -5.82902       -14.98915         0.96067
   S       -6.56333       -13.85166         2.07216
   C       -4.45346       -15.01500         0.93837
   C       -3.50471       -15.55225         0.03353
   C       -2.26241       -15.01042         0.16217
   C       -2.15656       -14.00796         1.17013
   S       -3.65439       -13.93479         2.06198
   C       -1.14582       -13.10693         1.37618
   C       -1.23882       -11.96507         2.19698
   C       -0.29067       -10.93998         2.29767
   C        0.93970       -10.99724         1.62999
   N        1.94294       -11.07215         1.07772
   C       -0.73297        -9.85812         3.09988
   C       -2.00516       -10.09967         3.60642
   S       -2.67230       -11.60989         3.14433
   S       -2.70115        -8.80319         4.52706
   C       -1.25861        -7.90062         4.23603
   C       -0.28069        -8.56178         3.48902
   C        0.85096        -7.73690         3.28972
   C        2.08183        -8.13293         2.74278
   N        3.12568        -8.38787         2.34230
   C        0.68897        -6.46184         3.83320
   S       -0.82671        -6.31253         4.70636
   C        1.51523        -5.31837         3.82616
   C        2.50889        -4.86250         3.01430
   C        3.27798        -3.69362         3.54353
   O        3.00762        -3.06693         4.54469
   C        4.40613        -3.50419         2.62572
   C        5.43033        -2.60306         2.69896
   C        6.42623        -2.61679         1.69817
   C        6.35016        -3.58163         0.65128
   C        7.35616        -3.60161        -0.33544
   C        8.38400        -2.70161        -0.28846
   C        8.45326        -1.74285         0.74332
   C        7.49541        -1.70030         1.71749
   F        9.47052        -0.87296         0.76074
   F        9.33839        -2.72033        -1.22611
   C        5.27395        -4.49747         0.59952
   C        4.30419        -4.44959         1.56529
   C        3.06806        -5.21465         1.72757
   C        2.48222        -5.94700         0.72705
   C        1.18364        -6.46822         0.79793
   N        0.10310        -6.86019         0.82664
   C        3.06781        -6.18555        -0.53689
   N        3.49003        -6.40452        -1.57977
   H        2.45685        -1.49706         1.03321
   H        0.13003        -1.08885         5.39078
   H        0.81503        -3.13658         0.28342
   H       -1.58733        -2.73820         4.63563
   H       -2.82341        -7.15099         0.44769
   H       -9.92533       -12.83723         0.88743
   H       -8.88142       -15.11923        -0.42182
   H       -6.59469       -16.28729        -0.61989
   H       -3.77926       -16.27185        -0.71718
   H       -1.43036       -15.24100        -0.47947
   H       -0.23453       -13.20895         0.80164
   H        1.32206        -4.64123         4.65791
   H        5.47882        -1.88794         3.50582
   H        7.31554        -4.32515        -1.13457
   H        7.55980        -0.96020         2.49952
   H        5.24850        -5.21970        -0.19991
*
