# ORCA input file
# SCF done       -221.441602979387          0.000592373508
! CAM-B3LYP def2-SVP def2/J RIJCOSX Grid4 TightSCF
%maxcore 5000
%tddft
    Mode sTDDFT
    Ethresh 5.0
    maxcore 5000
end

%pal
  nprocs 6
  end
* xyz 0 1
   C       -4.46549        -3.50027        15.00571
   C       -3.75165        -3.93460        16.08763
   F       -3.53645        -3.11301        17.12658
   C       -3.23548        -5.24355        16.12629
   F       -2.53813        -5.64452        17.20073
   C       -3.44053        -6.10207        15.08215
   C       -4.17186        -5.68442        13.95439
   C       -4.69353        -4.36009        13.91354
   C       -5.43183        -3.91839        12.78982
   C       -5.64170        -4.77567        11.74423
   C       -5.12059        -6.09885        11.79533
   C       -4.40335        -6.55254        12.86196
   C       -5.50356        -6.81797        10.55857
   O       -5.21728        -7.96482        10.27251
   C       -6.29853        -5.85767         9.77669
   C       -6.35913        -4.61067        10.47924
   C       -6.96163        -3.44074        10.06076
   C       -7.63654        -3.23882         8.84550
   N       -8.20542        -2.95798         7.88427
   C       -6.97301        -2.24711        10.80660
   N       -7.02837        -1.23628        11.35161
   C       -6.92003        -6.14253         8.57126
   C       -6.87011        -7.34205         7.88330
   C       -7.57745        -7.52654         6.70122
   C       -7.63692        -8.67189         5.88682
   C       -8.45006        -8.53808         4.78938
   C       -9.06478        -7.28061         4.69843
   S       -8.58022        -6.26296         6.03190
   C       -9.96100        -6.78325         3.75628
   C      -10.50391        -7.39212         2.61151
   C      -11.37630        -6.58822         1.92788
   C      -11.55739        -5.31129         2.50141
   S      -10.57595        -5.16544         3.94063
   C      -12.39489        -4.32054         2.02398
   C      -12.57640        -3.03971         2.54006
   S      -13.77448        -1.99143         1.76262
   C      -11.92880        -2.38416         3.59773
   C      -12.37727        -1.09409         3.78005
   C      -12.04802         0.06589         4.60915
   C      -11.21626         0.08714         5.67312
   C      -10.92374         1.36342         6.42139
   N      -11.94363         1.68553         7.41234
   C      -10.61885        -1.17200         6.24415
   N       -9.56026        -1.70714         5.38942
   C      -13.37304        -0.72238         2.83903
   C      -13.67298         0.62263         3.01633
   S      -14.71177         1.77897         2.30316
   C      -12.86086         1.15681         4.05559
   C      -13.09276         2.50646         4.23774
   C      -14.05201         3.03194         3.35341
   C      -14.39644         4.37667         3.21210
   C      -15.30463         4.88935         2.30225
   C      -15.48648         6.23418         1.91099
   C      -16.33490         6.40446         0.84713
   C      -16.89599         5.20450         0.37891
   S      -16.34674         3.86232         1.35095
   C      -17.66094         4.88266        -0.73875
   C      -17.97254         5.59729        -1.90849
   C      -18.45732         4.80783        -2.92078
   C      -18.59348         3.44494        -2.57930
   S      -18.13998         3.21146        -0.90451
   C      -18.83392         2.33455        -3.37254
   C      -18.90610         1.08378        -2.75060
   C      -18.51090        -0.18872        -3.09036
   C      -18.38161        -1.12350        -1.94358
   O      -18.92456        -1.02995        -0.86461
   C      -17.39249        -2.12998        -2.36905
   C      -16.75227        -3.06117        -1.60707
   C      -15.72565        -3.83306        -2.19406
   C      -15.41391        -3.64673        -3.57133
   C      -14.37968        -4.41464        -4.14299
   C      -13.67503        -5.30371        -3.37921
   C      -13.97471        -5.47022        -2.01440
   C      -14.98547        -4.75794        -1.43399
   F      -13.25115        -6.33171        -1.27393
   F      -12.68202        -6.02346        -3.92358
   C      -16.11164        -2.68181        -4.33902
   C      -17.07708        -1.91748        -3.74000
   C      -17.87395        -0.78702        -4.23287
   C      -18.01706        -0.44062        -5.55491
   C      -18.88301         0.56955        -6.00902
   N      -19.58535         1.37794        -6.42552
   C      -17.36605        -1.10067        -6.61458
   N      -16.85276        -1.59941        -7.51314
   H       -4.85412        -2.49391        14.99198
   H       -3.03897        -7.10231        15.12749
   H       -5.81477        -2.91068        12.79080
   H       -4.01835        -7.56090        12.87607
   H       -7.51763        -5.35653         8.12440
   H       -6.27927        -8.15922         8.26946
   H       -7.08456        -9.56252         6.12807
   H       -8.61574        -9.31161         4.06088
   H      -10.24737        -8.39409         2.31873
   H      -11.88787        -6.87710         1.02668
   H      -12.97076        -4.57543         1.14359
   H      -11.11433        -2.80727         4.15388
   H      -10.84839         2.20297         5.72708
   H       -9.97142         1.27463         6.95023
   H      -12.85718         1.73584         6.97314
   H      -11.98262         0.96250         8.12319
   H      -11.39147        -1.94667         6.31610
   H      -10.26198        -0.95735         7.26430
   H       -9.09754        -2.45828         5.89600
   H       -8.85819        -0.99105         5.22653
   H      -12.61058         3.14346         4.95670
   H      -13.85186         5.08450         3.82355
   H      -14.95288         7.03654         2.38975
   H      -16.55766         7.35560         0.39733
   H      -17.79002         6.65355        -2.00036
   H      -18.70156         5.16763        -3.90461
   H      -18.88772         2.46159        -4.44221
   H      -19.17945         1.13148        -1.69491
   H      -17.00564        -3.18667        -0.56555
   H      -14.13305        -4.29855        -5.18683
   H      -15.21439        -4.89846        -0.38885
   H      -15.83862        -2.55199        -5.37410
*
