# ORCA input file
# SCF done       -212.518827054269          0.000766426898
! CAM-B3LYP def2-SVP def2/J RIJCOSX Grid4 TightSCF
%maxcore 5000
%tddft
    Mode sTDDFT
    Ethresh 5.0
    maxcore 5000
end

%pal
  nprocs 6
  end
* xyz 0 1
   C      -14.86654        -8.30477        -8.64215
   C      -14.29479        -9.28947        -9.39920
   F      -15.05605       -10.04556       -10.20068
   C      -12.90511        -9.52256        -9.34877
   F      -12.38205       -10.49409       -10.10555
   C      -12.10324        -8.76639        -8.53972
   C      -12.66366        -7.74474        -7.74864
   C      -14.06815        -7.50789        -7.79860
   C      -14.64688        -6.48261        -7.01430
   C      -13.84752        -5.72285        -6.20310
   C      -12.44277        -5.97163        -6.15515
   C      -11.85480        -6.94953        -6.90685
   C      -11.82731        -5.02898        -5.22180
   O      -10.64288        -4.94471        -4.89913
   C      -12.91362        -4.17609        -4.72152
   C      -14.16151        -4.61051        -5.30973
   C      -15.40677        -4.08910        -5.07854
   C      -16.58990        -4.56169        -5.68346
   N      -17.58478        -4.90384        -6.14183
   C      -15.65923        -3.01635        -4.19918
   N      -15.90062        -2.14636        -3.49029
   C      -12.66686        -3.14177        -3.85531
   N      -11.41369        -2.90968        -3.44136
   C      -10.98717        -1.91377        -2.62829
   S      -12.08229        -0.73921        -1.97078
   C      -10.74216         0.03895        -1.19676
   N      -11.00505         1.17285        -0.41139
   O      -10.06051         1.70923         0.13334
   O      -12.16657         1.52753        -0.33761
   C       -9.53782        -0.56532        -1.43440
   C       -9.65267        -1.70191        -2.25907
   C       -8.56316        -2.55701        -2.65811
   C       -7.27085        -2.21519        -2.52345
   N       -6.22777        -3.04166        -2.85148
   C       -4.91823        -2.70832        -2.74319
   S       -4.46959        -1.10586        -2.24567
   C       -2.79712        -1.56481        -2.28526
   N       -1.85021        -0.59206        -1.95146
   O       -0.67693        -0.91295        -1.97352
   O       -2.28331         0.50996        -1.66027
   C       -2.60846        -2.86761        -2.65083
   C       -3.81072        -3.54504        -2.93917
   C       -3.78017        -4.92766        -3.34318
   C       -4.68626        -5.63483        -4.03797
   N       -4.46976        -6.96104        -4.33669
   C       -5.26436        -7.76504        -5.06845
   S       -6.75396        -7.19050        -5.73962
   C       -7.03938        -8.76842        -6.41834
   N       -8.20415        -8.94240        -7.15466
   O       -8.46197       -10.04817        -7.59110
   O       -8.90717        -7.94930        -7.30759
   C       -6.04843        -9.66833        -6.14270
   C       -5.01069        -9.12167        -5.36352
   C       -3.83821        -9.82214        -4.94291
   C       -3.58226       -11.13049        -5.18364
   C       -2.37498       -11.74670        -4.77432
   C       -1.91039       -12.97871        -5.11811
   C       -0.82595       -13.60292        -4.31002
   O       -0.12326       -13.04736        -3.49780
   C       -0.84729       -15.03301        -4.67255
   C       -0.12954       -16.06350        -4.13701
   C       -0.34176       -17.37331        -4.62174
   C       -1.30382       -17.59053        -5.65091
   C       -1.51899       -18.90121        -6.12236
   C       -0.80974       -19.94608        -5.59973
   C        0.14384       -19.72955        -4.58400
   C        0.37398       -18.47056        -4.10437
   F        0.82343       -20.77202        -4.09041
   F       -1.01480       -21.19003        -6.04851
   C       -2.02645       -16.50273        -6.19213
   C       -1.79544       -15.23967        -5.71595
   C       -2.35198       -13.94457        -6.10241
   C       -2.97570       -13.67703        -7.29258
   C       -3.25681       -12.37916        -7.76900
   N       -3.47287       -11.34480        -8.21749
   C       -3.31378       -14.67051        -8.23670
   N       -3.62061       -15.44284        -9.02759
   H      -15.93164        -8.14121        -8.69481
   H      -11.04131        -8.95189        -8.50786
   H      -15.71114        -6.32318        -7.07887
   H      -10.78840        -7.11062        -6.87468
   H      -13.44457        -2.48501        -3.48780
   H      -10.72517        -3.57449        -3.84495
   H       -8.62495        -0.19694        -1.00481
   H       -8.81344        -3.52081        -3.08008
   H       -6.97769        -1.24619        -2.15014
   H       -6.45079        -3.99425        -3.10756
   H       -1.63082        -3.30902        -2.72246
   H       -2.86032        -5.43139        -3.07147
   H       -5.60173        -5.23055        -4.44154
   H       -3.60376        -7.36003        -3.99419
   H       -6.07574       -10.67383        -6.51870
   H       -3.07511        -9.25171        -4.42767
   H       -4.31551       -11.73712        -5.69047
   H       -1.76318       -11.21267        -4.05386
   H        0.58997       -15.88183        -3.35325
   H       -2.24203       -19.08415        -6.90185
   H        1.10670       -18.32155        -3.32679
   H       -2.75301       -16.69793        -6.96458
*
