# ORCA input file
# SCF done       -170.081218977710          0.000359458148
! CAM-B3LYP def2-SVP def2/J RIJCOSX Grid4 TightSCF
%maxcore 5000
%tddft
    Mode sTDDFT
    Ethresh 5.0
    maxcore 5000
end

%pal
  nprocs 6
  end
* xyz 0 1
   C      -10.32095       -18.06077         6.31662
   C      -10.67720       -17.74879         5.06378
   C      -11.82721       -18.21423         4.33914
   C      -11.92846       -17.72771         3.08483
   C      -10.87609       -16.84087         2.70835
   S       -9.74415       -16.65196         4.03154
   C      -10.70754       -16.19709         1.51006
   C      -11.55164       -16.27097         0.36936
   C      -11.11849       -15.51965        -0.67095
   C       -9.90899       -14.80973        -0.41374
   S       -9.33264       -15.12807         1.20397
   C       -9.24089       -13.98083        -1.26271
   C       -8.03636       -13.34197        -0.84089
   N       -7.63213       -13.61819         0.40825
   C       -6.52636       -13.04357         0.83626
   C       -5.79733       -12.17706         0.04365
   C       -6.28306       -11.93847        -1.25566
   N       -7.39781       -12.52913        -1.68064
   C       -5.64132       -11.07200        -2.21713
   C       -4.54869       -10.32081        -1.98135
   C       -3.93230        -9.45712        -2.92778
   S       -4.73798        -9.05052        -4.40984
   C       -3.51967        -7.96729        -4.87418
   C       -2.49972        -7.90546        -3.94945
   C       -2.71087        -8.78158        -2.83390
   C       -1.70576        -8.86191        -1.83177
   C       -0.62797        -8.01102        -1.90755
   C       -0.44432        -7.12524        -2.97968
   C       -1.34476        -7.07684        -4.01143
   O       -1.20787        -6.27838        -5.09134
   C       -1.77486        -9.81494        -0.72001
   C       -1.66599       -11.19292        -0.81495
   C       -1.39974       -12.12599        -1.87315
   O       -1.56235       -13.32049        -1.76236
   C       -0.77330       -11.60065        -3.19659
   F        0.16514       -10.66273        -2.98592
   F       -0.17629       -12.59725        -3.84798
   F       -1.67721       -11.07502        -4.03476
   S       -1.89607       -11.96681         0.74130
   C       -2.06265       -10.46025         1.49721
   C       -1.98373        -9.38761         0.62805
   C       -2.12866        -8.00687         0.98781
   C       -2.28031        -7.53778         2.24833
   C       -2.40738        -6.15057         2.50694
   C       -2.57851        -5.60146         3.74430
   C       -2.70615        -4.18967         4.06012
   C       -2.56226        -3.13567         3.19395
   C       -2.24785        -3.23639         1.82291
   N       -1.98262        -3.22983         0.70519
   C       -2.68846        -1.78124         3.56787
   N       -2.78115        -0.66224         3.80687
   C       -2.98372        -4.07866         5.48695
   C       -2.98079        -5.37584         6.05703
   C       -2.71285        -6.37447         5.00536
   O       -2.63029        -7.57533         5.15832
   C       -3.20807        -5.59999         7.39319
   C       -3.45488        -4.49090         8.20853
   C       -3.46006        -3.19838         7.63063
   C       -3.22716        -2.97180         6.28011
   S       -3.79069        -1.97074         8.81462
   C       -3.91573        -3.19277        10.05254
   C       -3.71981        -4.45587         9.60459
  Br       -4.29297        -2.68578        11.81792
   H      -10.91870       -18.73203         6.90784
   H       -9.43488       -17.65510         6.76916
   H      -12.52448       -18.89423         4.79597
   H      -12.72374       -17.96992         2.40224
   H      -12.44502       -16.87056         0.35079
   H      -11.61544       -15.44024        -1.62207
   H       -9.60026       -13.78796        -2.25997
   H       -6.22268       -13.28989         1.84597
   H       -4.89640       -11.71753         0.41341
   H       -6.10994       -11.06009        -3.19150
   H       -4.09772       -10.33014        -1.00037
   H       -3.59335        -7.41330        -5.78789
   H        0.13455        -8.06036        -1.14473
   H        0.43590        -6.49883        -2.99679
   H       -0.39227        -5.76537        -5.02452
   H       -2.22555       -10.41387         2.55649
   H       -2.10601        -7.30466         0.16337
   H       -2.30133        -8.20694         3.09390
   H       -2.36804        -5.49785         1.64446
   H       -3.19761        -6.60057         7.79622
   H       -3.24388        -1.96829         5.88939
   H       -3.76074        -5.32783        10.23146
*
