# ORCA input file
# SCF done       -129.590719069428          0.000208505125
! CAM-B3LYP def2-SVP def2/J RIJCOSX Grid4 TightSCF
%maxcore 5000
%tddft
    Mode sTDDFT
    Ethresh 5.0
    maxcore 5000
end

%pal
  nprocs 6
  end
* xyz 0 1
   C        8.51043        -2.85708        -0.61310
   O        7.42072        -2.35959        -1.25209
   C        7.07333        -1.23087        -0.59838
   C        7.92093        -0.99407         0.44711
   C        8.86104        -2.06427         0.43475
   C        9.98118        -2.25264         1.39335
   N        5.96790        -0.58919        -1.10720
   C        5.35829         0.53196        -0.65827
   S        5.95610         1.42774         0.69270
   C        4.62225         2.53546         0.53605
   N        4.56256         3.59474         1.43466
   O        3.63298         4.37943         1.33669
   O        5.45789         3.66227         2.26614
   C        3.77652         2.21878        -0.49309
   C        4.17791         1.07205        -1.20384
   C        3.49184         0.52189        -2.33527
   C        2.22341         0.84842        -2.69287
   C        1.55454         0.32921        -3.81778
   C        0.24336         0.60099        -4.10951
   C       -0.50996         0.14163        -5.21955
   C       -1.80526         0.55914        -5.23117
   C       -2.15831         1.36680        -4.12586
   S       -0.77428         1.59818        -3.07857
   C       -3.38696         1.91334        -3.81999
   C       -4.59301         1.82187        -4.55349
   C       -5.64986         2.45153        -3.97415
   C       -5.34140         3.07972        -2.73683
   S       -3.63711         2.84556        -2.35726
   C       -6.14025         3.77169        -1.87525
   N       -7.47283         3.97329        -2.07585
   C       -8.33209         4.67796        -1.29321
   S      -10.02558         4.27879        -1.39782
   C      -10.36446         5.43810        -0.15092
   N      -11.69128         5.61096         0.22790
   O      -11.93288         6.41967         1.11036
   O      -12.52497         4.93055        -0.35555
   C       -9.24207         6.08238         0.30214
   C       -8.06312         5.67734        -0.34771
   C       -6.77389         6.28960        -0.13370
   C       -6.41484         6.93685         0.98966
   C       -5.13925         7.55470         1.17085
   O       -4.20497         7.50239         0.18439
   C       -3.11887         8.14505         0.63180
   C       -3.31905         8.62117         1.89252
   C       -4.63165         8.24318         2.25845
   C       -5.31849         8.53173         3.54636
   H        8.92769        -3.76338        -1.00148
   H        7.90237        -0.18276         1.14228
   H       10.61056        -1.36528         1.41677
   H       10.58489        -3.10965         1.10907
   H        9.59265        -2.41289         2.39780
   H        5.54324        -1.05794        -1.89750
   H        2.91343         2.81471        -0.72468
   H        4.02293        -0.20254        -2.94026
   H        1.65970         1.53645        -2.07805
   H        2.09519        -0.32332        -4.49071
   H       -0.06579        -0.48401        -5.97380
   H       -2.51625         0.30401        -5.99662
   H       -4.64545         1.29386        -5.48874
   H       -6.63562         2.47915        -4.40550
   H       -5.72610         4.16951        -0.96378
   H       -7.89791         3.44851        -2.83019
   H       -9.29172         6.84939         1.05272
   H       -6.06893         6.24863        -0.95142
   H       -7.08049         6.99664         1.83737
   H       -2.27349         8.19603        -0.02556
   H       -2.62067         9.17044         2.49007
   H       -4.65102         9.07177         4.21209
   H       -5.62535         7.60756         4.03462
   H       -6.20921         9.13677         3.38042
*
