# ORCA input file
# SCF done       -176.380614827962          0.000613298846
! CAM-B3LYP def2-SVP def2/J RIJCOSX Grid4 TightSCF
%maxcore 5000
%tddft
    Mode sTDDFT
    Ethresh 5.0
    maxcore 5000
end

%pal
  nprocs 6
  end
* xyz 0 1
   C        1.52110        -1.06769        -4.12069
   C        1.17945        -0.67902        -2.83018
   C        0.99300        -1.63481        -1.75899
   N        0.67084        -1.19537        -0.53336
   C        0.52757         0.08978        -0.32380
   C        0.70831         1.03715        -1.38985
   N        1.02321         0.64220        -2.59175
   C        0.54333         2.42270        -1.12834
   N        0.40289         3.53028        -0.87503
   C        0.19025         0.53974         0.97653
   N       -0.07900         0.93104         2.01891
   C        1.15317        -3.02600        -1.98429
   C        1.50446        -3.39349        -3.29921
   C        1.68506        -2.42532        -4.35755
   N        2.01391        -3.01858        -5.51378
   S        2.08575        -4.59806        -5.29031
   N        1.70928        -4.63933        -3.73103
   C        0.99034        -4.03012        -0.98487
   S        1.27790        -5.70475        -1.36958
   C        0.90780        -6.20352         0.25132
   C        0.56781        -5.09188         1.04129
   C        0.61844        -3.88409         0.34053
   C        0.21466        -5.13523         2.40068
   N       -0.07664        -5.13603         3.51111
   C        0.99598        -7.57202         0.58388
   C        0.72848        -8.09440         1.81484
   C        0.86150        -9.46697         2.11188
   N        0.60816        -9.99782         3.35528
   C        0.21818        -9.27140         4.54175
   C        1.40470        -8.56971         5.19635
   C        0.83289       -11.38053         3.39359
   O        0.67684       -12.06287         4.38748
   C        1.24875       -11.71564         2.04739
   C        1.25356       -10.52540         1.28529
   C        1.66403       -10.85954        -0.06034
   O        1.81255       -10.18426        -1.06022
   N        1.87863       -12.24788        -0.02393
   C        2.35445       -12.95897        -1.18550
   C        3.85857       -13.21341        -1.11986
   C        1.64500       -12.77499         1.22601
   C        1.79417       -14.14249         1.55126
   C        1.56878       -14.60779         2.81087
   C        1.70746       -15.95246         3.22624
   S        1.38411       -16.34664         4.89442
   C        1.75203       -18.02048         4.63311
   C        2.10781       -18.23851         3.29365
   C        2.08133       -17.07927         2.51301
   C        2.45838       -19.50710         2.79942
   N        2.74546       -20.53766         2.38616
   C        1.69404       -19.00089         5.64746
   C        1.35073       -18.72688         6.93284
   C        1.27754       -19.67608         7.98872
   C        0.90495       -19.24163         9.28814
   C        0.80994       -20.15660        10.39986
   N        0.44983       -19.70216        11.62147
   C        0.19538       -18.43171        11.76863
   C        0.29259       -17.51826        10.66024
   N        0.63796       -17.93869         9.46942
   C        0.01281       -16.14285        10.85422
   N       -0.21949       -15.03770        11.04639
   C       -0.18437       -17.93854        13.04457
   N       -0.49381       -17.50090        14.05623
   C        1.08171       -21.51190        10.24964
   C        1.45008       -21.95807         8.98690
   C        1.55047       -21.05499         7.85651
   N        1.91870       -21.70400         6.74865
   S        2.11469       -23.25833         7.08713
   N        1.75108       -23.21762         8.64090
   H        1.65157        -0.33139        -4.89466
   H        0.39389        -2.93072         0.78248
   H        1.30998        -8.23390        -0.21353
   H        0.40510        -7.44389         2.61215
   H       -0.19157       -10.01633         5.22934
   H       -0.56531        -8.55202         4.29083
   H        2.16408        -9.29814         5.47056
   H        1.07279        -8.05677         6.09403
   H        1.84706        -7.83826         4.52402
   H        2.12895       -12.32033        -2.04414
   H        1.80317       -13.89752        -1.29116
   H        4.39157       -12.26754        -1.06437
   H        4.18209       -13.74252        -2.01191
   H        4.11746       -13.80712        -0.24582
   H        2.09867       -14.81987         0.76711
   H        1.26147       -13.90787         3.57730
   H        2.32804       -17.07197         1.46648
   H        1.94163       -20.01441         5.36023
   H        1.10572       -17.71041         7.21460
   H        1.00614       -22.18166        11.08895
*
