# ORCA input file
# SCF done       -191.785818709032          0.000994764297
! CAM-B3LYP def2-SVP def2/J RIJCOSX Grid4 TightSCF
%maxcore 5000
%tddft
    Mode sTDDFT
    Ethresh 5.0
    maxcore 5000
end

%pal
  nprocs 6
  end
* xyz 0 1
   C        2.76070        -1.20099        -4.66171
   O        1.89340        -1.91866        -5.11200
   C        3.68204        -0.35415        -5.44309
   C        4.54898         0.32886        -4.57236
   C        5.49635         1.19464        -5.09567
   C        5.56124         1.35900        -6.47449
   C        4.69711         0.67078        -7.33029
   C        3.74469        -0.19652        -6.81232
  Br        4.81287         0.91016        -9.20010
  Br        6.85205         2.54146        -7.18558
   C        4.23592        -0.04899        -3.19548
   C        4.89831         0.39922        -2.08628
   C        5.98709         1.29935        -2.12979
   N        6.87482         2.02530        -2.10150
   C        4.62109         0.04363        -0.74674
   N        4.47608        -0.18275         0.36885
   C        3.11989        -0.98470        -3.24455
   C        2.50764        -1.55352        -2.16735
   C        1.42975        -2.46575        -2.11703
   S        0.51386        -3.18747        -3.43210
   C       -0.38252        -4.01613        -2.18583
   N        0.03191        -3.71486        -0.96725
   N        1.00750        -2.87913        -0.93708
   C       -1.43092        -4.93001        -2.46488
   C       -2.08851        -5.58244        -1.47208
   C       -3.10945        -6.53408        -1.71820
   N       -3.75965        -7.22839        -0.72739
   C       -3.50469        -7.15245         0.69149
   C       -2.27203        -7.96154         1.08613
   C       -4.69799        -8.14039        -1.24677
   O       -5.41782        -8.83064        -0.55884
   C       -4.58971        -7.97893        -2.68273
   C       -3.63130        -6.96569        -2.93781
   C       -3.56387        -6.76921        -4.36855
   O       -2.91054        -6.01458        -5.06076
   N       -4.49760        -7.68524        -4.88944
   C       -4.67917        -7.83585        -6.31284
   C       -3.90092        -9.02711        -6.86545
   C       -5.08784        -8.43417        -3.89802
   C       -5.99924        -9.49917        -4.14965
   C       -6.36163       -10.38048        -3.19259
   C       -7.22491       -11.51478        -3.41047
   C       -6.96634       -12.71305        -2.73652
   C       -5.87742       -13.05677        -1.79235
   O       -4.96161       -12.38559        -1.41089
   O       -6.05366       -14.34633        -1.41470
   C       -7.17546       -14.93102        -2.05410
   C       -7.73271       -13.85446        -2.92800
   C       -8.79406       -13.85847        -3.81632
   C       -9.06697       -12.68750        -4.49826
   C       -8.31826       -11.51900        -4.30665
   C       -8.73324       -10.29970        -4.97063
   C       -9.19010       -10.23756        -6.23735
   C       -9.56152        -9.02969        -6.90033
   C      -10.11124        -7.89801        -6.38878
   C      -10.04089        -6.63669        -7.17885
   O       -9.69554        -6.52191        -8.33022
   C      -10.42238        -5.56698        -6.23218
   C      -10.80465        -6.13997        -5.00473
   C      -10.75676        -7.59634        -5.12424
   C      -11.43504        -8.46934        -4.31836
   C      -11.58971        -9.84341        -4.59357
   N      -11.79150       -10.95606        -4.78679
   C      -12.14782        -8.08064        -3.16328
   N      -12.73397        -7.81335        -2.21444
   C      -11.17500        -5.32326        -3.94941
   C      -11.17203        -3.94633        -4.14115
   C      -10.81017        -3.38615        -5.36955
   C      -10.42643        -4.20102        -6.42699
  Br      -10.83642        -1.51236        -5.60873
  Br      -11.67471        -2.82945        -2.70232
   H        6.18035         1.74510        -4.47074
   H        3.06906        -0.73329        -7.45994
   H        2.86030        -1.30157        -1.17441
   H       -1.67987        -5.09865        -3.50330
   H       -1.80587        -5.37530        -0.45023
   H       -4.38922        -7.57169         1.17918
   H       -3.39785        -6.10603         0.98857
   H       -2.41183        -9.00491         0.81388
   H       -2.12141        -7.89968         2.16009
   H       -1.38209        -7.58624         0.58581
   H       -4.30337        -6.91311        -6.76389
   H       -5.74614        -7.92750        -6.53834
   H       -2.83859        -8.89274        -6.67858
   H       -4.05805        -9.10337        -7.93775
   H       -4.21993        -9.95492        -6.39530
   H       -6.34315        -9.63039        -5.16726
   H       -5.92842       -10.30346        -2.20351
   H       -7.88861       -15.26123        -1.29028
   H       -6.84092       -15.80778        -2.61969
   H       -9.39587       -14.74031        -3.96749
   H       -9.91632       -12.64648        -5.16240
   H       -8.62227        -9.38579        -4.39838
   H       -9.16843       -11.12724        -6.85250
   H       -9.31653        -8.97225        -7.95759
   H      -11.45570        -5.72150        -2.98759
   H      -10.14165        -3.77882        -7.37822
*
