# ORCA input file
# SCF done       -176.828138642968          0.000871675466
! CAM-B3LYP def2-SVP def2/J RIJCOSX Grid4 TightSCF
%maxcore 5000
%tddft
    Mode sTDDFT
    Ethresh 5.0
    maxcore 5000
end

%pal
  nprocs 6
  end
* xyz 0 1
   C        5.45385         2.90277        -1.45776
   C        5.69525         4.21211        -1.73734
   S        7.38624         4.55695        -1.70031
   C        7.78498         2.90180        -1.30281
  Cl        9.38569         2.40077        -1.07891
   C        6.64902         2.15257        -1.20948
   C        6.30450         0.76266        -0.92065
   O        7.05998        -0.15782        -0.68056
   C        4.82711         0.70263        -0.99068
   C        4.30999         2.02052        -1.33193
   C        3.00799         2.40812        -1.51269
   C        2.68090         3.73992        -1.84671
   N        2.39758         4.81789        -2.11713
   C        1.87640         1.57732        -1.39882
   N        0.92360         0.94102        -1.31604
   C        4.05845        -0.40557        -0.76024
   C        4.42703        -1.71534        -0.39946
   S        6.04593        -2.29281        -0.14973
   C        5.46073        -3.86956         0.27997
   C        4.06586        -3.93888         0.23366
   C        3.48847        -2.73654        -0.16203
   C        2.00844        -2.54899        -0.29811
   C        1.26562        -3.88984        -0.27467
   C       -0.23109        -3.61945        -0.14352
   F       -0.65220        -2.73340        -1.05518
   F       -0.97509        -4.71707        -0.31432
   F       -0.54526        -3.11612         1.06008
   C        1.78911        -4.74442         0.89012
   C        1.03027        -5.96311         1.08265
   N        0.48818        -6.95467         1.24295
   C        3.24931        -5.13558         0.61005
   C        6.42338        -4.86352         0.60881
   C        7.74844        -4.60633         0.88212
   C        8.43169        -5.83081         1.13223
   C        7.41588        -6.89529         0.98221
   C        6.23100        -6.31047         0.67654
   C        7.61077        -8.27433         1.12588
   N        7.73113        -9.41053         1.24077
   C        9.75878        -6.00548         1.43278
   C       10.44887        -7.24733         1.63676
   C       11.76938        -6.97384         1.86952
   C       11.96985        -5.53497         1.83614
   C       10.77296        -4.94557         1.58028
   C       10.55966        -3.56325         1.50078
   N       10.41758        -2.42489         1.45312
   C       12.82479        -7.89922         2.09899
   O       12.62675        -9.23274         2.15081
   C       13.87244        -9.71446         2.34425
   N       14.74677        -8.73805         2.42511
   N       14.09100        -7.60166         2.27882
   C       14.11040       -11.10558         2.54690
   C       15.30466       -11.72919         2.46648
   C       15.48316       -13.07552         3.11760
   O       14.60403       -13.80769         3.49431
   C       16.93601       -13.22455         3.22618
   C       17.81011       -14.11641         3.77719
   S       19.45760       -13.60988         3.49506
   C       18.94992       -12.20714         2.62754
   C       17.59375       -12.13131         2.56775
   C       16.59475       -11.26685         1.97068
   C       16.82789       -10.36453         0.97352
   C       18.13963       -10.07040         0.54267
   N       19.20380        -9.82657         0.19209
   C       15.81813        -9.74124         0.21076
   N       15.03462        -9.28214        -0.49033
  Cl       17.45422       -15.53504         4.62851
   H        5.00337         4.99985        -1.96072
   H        2.98968        -0.26529        -0.84989
   H        1.77080        -2.02620        -1.22770
   H        1.64383        -1.92352         0.52509
   H        1.40919        -4.42551        -1.21955
   H        1.72880        -4.15835         1.81587
   H        3.26762        -5.86746        -0.20487
   H        3.66743        -5.61066         1.49976
   H        8.20281        -3.63544         0.91090
   H        5.31563        -6.83416         0.48154
   H        9.99819        -8.21936         1.59555
   H       12.91835        -5.05876         1.99299
   H       13.25953       -11.68774         2.88076
   H       19.68506       -11.53429         2.23258
*
