# ORCA input file
# SCF done       -188.093772286809          0.000460935648
! CAM-B3LYP def2-SVP def2/J RIJCOSX Grid4 TightSCF
%maxcore 5000
%tddft
    Mode sTDDFT
    Ethresh 5.0
    maxcore 5000
end

%pal
  nprocs 6
  end
* xyz 0 1
   C        0.58268         1.49515        -6.95724
   C       -0.31583         2.33951        -7.53180
   S       -1.17137         1.56190        -8.81334
   C       -0.30153         0.06414        -8.57206
  Cl       -0.60455        -1.29742        -9.53307
   C        0.59318         0.19253        -7.55243
   C        1.56935        -0.66369        -6.86858
   O        1.78615        -1.83732        -7.06186
   C        2.16760         0.21236        -5.81443
   C        1.56266         1.53284        -5.89045
   C        1.87369         2.64662        -5.15587
   C        1.19908         3.86896        -5.35917
   N        0.65674         4.86854        -5.51076
   C        2.87468         2.72746        -4.16732
   N        3.68546         2.86608        -3.36643
   C        3.01203        -0.21781        -4.83419
   C        3.71401        -1.45017        -4.77464
   C        4.08269        -2.07748        -3.60203
   C        4.77812        -3.28222        -3.91371
   C        4.85372        -3.34056        -5.38071
   C        4.21179        -2.25333        -5.88495
   C        5.41664        -4.36361        -6.15574
   N        5.83433        -5.19564        -6.82754
   C        5.27733        -4.21238        -3.02614
   C        6.08613        -5.33883        -3.31803
   C        6.31217        -6.05632        -2.15386
   C        5.62906        -5.36209        -1.07036
   C        5.03632        -4.24759        -1.57201
   C        4.29020        -3.33718        -0.81483
   N        3.67879        -2.61853        -0.15994
   C        7.09898        -7.23220        -2.10057
   N        7.11027        -8.19720        -1.12273
   C        6.24631        -8.31998         0.02894
   C        4.78810        -8.53385        -0.36289
   C        8.00769        -9.23914        -1.42738
   O        8.16526       -10.21213        -0.71741
   C        8.61347        -8.84382        -2.67894
   C        8.03394        -7.62428        -3.07102
   C        8.68897        -7.18817        -4.29366
   O        8.56599        -6.19899        -4.97726
   N        9.60753        -8.21953        -4.57597
   C       10.47365        -8.14529        -5.72943
   C       11.87645        -7.67221        -5.35817
   C        9.58651        -9.20828        -3.62766
   C       10.40725       -10.35140        -3.66124
   C       10.35605       -11.32564        -2.70373
   C       11.16835       -12.48086        -2.70168
   C       12.16788       -12.84957        -3.58301
   C       12.71551       -14.09910        -3.17707
   C       11.97625       -14.49743        -1.96327
   C       11.06816       -13.52626        -1.69022
   C       12.14973       -15.64850        -1.17974
   N       12.21903       -16.55620        -0.48104
   C       13.74073       -14.78858        -3.78185
   C       14.28020       -16.05102        -3.39764
   C       15.31806       -16.36637        -4.24161
   C       15.45273       -15.29227        -5.21741
   C       14.51766       -14.34306        -4.95644
   C       14.34955       -13.15741        -5.67746
   N       14.22897       -12.18968        -6.28616
   C       16.15661       -17.51603        -4.24040
   S       17.23292       -17.81038        -5.58398
   C       17.78550       -19.26664        -4.87889
   C       17.19979       -19.52779        -3.66975
   C       16.27864       -18.52358        -3.30915
   S       15.37693       -18.57060        -1.76216
   O       14.01752       -18.91911        -2.06692
   O       15.63182       -17.34985        -1.04928
   C       16.15162       -19.95550        -0.87708
   C       16.36901       -21.07401        -1.87330
   C       17.50416       -20.73399        -2.83703
   H       -0.54162         3.35957        -7.29213
   H        3.15069         0.42146        -3.96943
   H        3.86540        -1.73006        -2.61041
   H        4.11373        -2.00475        -6.92303
   H        6.46891        -5.58169        -4.28921
   H        5.62536        -5.64549        -0.03587
   H        6.36021        -7.44793         0.67752
   H        6.61356        -9.19629         0.57201
   H        4.40089        -7.68801        -0.92681
   H        4.18500        -8.65963         0.53195
   H        4.69387        -9.42873        -0.97349
   H       10.01061        -7.42352        -6.40786
   H       10.50908        -9.12050        -6.22173
   H       11.82943        -6.68091        -4.91408
   H       12.49296        -7.62428        -6.25102
   H       12.34507        -8.34977        -4.64790
   H       11.09719       -10.45219        -4.48603
   H        9.65610       -11.22279        -1.88459
   H       12.49736       -12.29939        -4.44139
   H       10.37550       -13.50599        -0.86931
   H       13.90836       -16.64467        -2.58897
   H       16.18649       -15.27154        -6.00274
   H       18.51569       -19.86043        -5.39264
   H       15.44981       -20.22526        -0.09240
   H       17.07474       -19.58205        -0.44240
   H       16.60555       -22.00421        -1.35209
   H       15.43968       -21.22103        -2.42870
   H       17.69891       -21.58110        -3.49832
   H       18.42036       -20.55164        -2.26522
*
