# ORCA input file
# SCF done       -198.321344052289          0.000925431641
! CAM-B3LYP def2-SVP def2/J RIJCOSX Grid4 TightSCF
%maxcore 5000
%tddft
    Mode sTDDFT
    Ethresh 5.0
    maxcore 5000
end

%pal
  nprocs 6
  end
* xyz 0 1
   C        3.53177         7.74651         3.86817
   C        2.93992         7.39149         2.68475
   C        3.31077         7.92162         1.43301
   N        3.55856         8.34219         0.39405
   C        1.95386         6.38780         2.58836
   N        1.18691         5.54141         2.47277
   C        4.75754         8.52387         4.00162
   C        5.34299         8.22865         5.26836
   C        6.53539         8.77332         5.64952
   C        7.20114         9.65845         4.77174
   C        6.61201         9.96999         3.51191
   C        5.37895         9.38698         3.14018
   C        7.28532        10.85759         2.64818
   C        8.48500        11.40883         3.00735
   C        9.06506        11.10058         4.24699
   C        8.43694        10.24429         5.11014
   C        4.46616         7.30462         6.00999
   O        4.65606         6.79291         7.08860
   C        3.23889         7.17839         5.16913
   C        2.09307         6.70328         5.71969
   C        0.75501         6.85732         5.27064
   S        0.24123         8.17939         4.24901
   C       -1.39892         7.62746         4.26047
   C       -1.52572         6.47917         5.04416
   C       -0.31755         6.06834         5.62562
   C       -2.74833         5.80645         5.21818
   N       -3.73878         5.24762         5.36361
   C       -2.43554         8.27692         3.54811
   C       -2.23382         9.34345         2.73978
   C       -3.23165         9.98936         1.95888
   S       -2.72754        10.55678         0.40159
   C       -4.33578        10.88478        -0.10925
   C       -5.24838        10.56757         0.89533
   C       -4.61670        10.13328         2.11144
   C       -5.43158        10.00234         3.27108
   C       -4.90123         9.96825         4.67615
   F       -3.68132        10.51003         4.81403
   F       -5.69770        10.67456         5.50167
   F       -4.83965         8.73642         5.21712
   C       -6.79623        10.04675         3.13492
   C       -7.41788        10.23665         1.89399
   C       -6.67378        10.53240         0.77771
   O       -7.17696        10.77392        -0.44836
   C       -8.57447        10.72586        -0.63807
   C       -4.54527        11.46698        -1.41804
   C       -3.78459        11.04010        -2.50314
   C       -3.93343        11.61484        -3.75450
   N       -3.09540        11.06449        -4.79728
   O       -2.78385         9.89906        -4.68529
   O       -2.73807        11.78801        -5.70055
   C       -4.87634        12.63557        -3.98583
   C       -5.61652        13.06371        -2.87244
   C       -5.44821        12.51724        -1.62285
   C       -5.10884        13.22616        -5.28387
   C       -6.29005        13.76799        -5.65835
   C       -6.47323        14.34233        -6.94499
   C       -7.66065        14.82055        -7.40972
   C       -7.91129        15.40463        -8.71859
   C       -6.97004        15.82513        -9.61927
   C       -7.27821        16.40562       -10.86839
   N       -7.46608        16.87967       -11.89660
   C       -5.57310        15.78642        -9.41934
   N       -4.42970        15.81291        -9.32223
   C       -9.35482        15.52981        -8.87845
   C       -9.98350        15.14312        -7.66013
   C       -8.96049        14.72990        -6.68700
   O       -9.15131        14.37826        -5.54081
   C      -11.34051        15.16711        -7.50906
   C      -12.14747        15.57714        -8.59310
   C      -11.52695        15.95586        -9.81887
   C      -10.11928        15.92781        -9.94358
   C      -12.34231        16.35517       -10.89746
   C      -13.70468        16.38013       -10.77308
   C      -14.31446        16.00826        -9.56543
   C      -13.55257        15.61598        -8.49851
   H        6.96826         8.53011         6.60846
   H        4.94917         9.64415         2.18446
   H        6.83653        11.08880         1.69334
   H        8.99449        12.08508         2.33743
   H       10.01207        11.54483         4.51447
   H        8.87901        10.00313         6.06574
   H        2.20957         6.19529         6.67270
   H       -0.22562         5.20022         6.25399
   H       -3.41803         7.83919         3.65216
   H       -1.21706         9.67862         2.57012
   H       -7.41920         9.93865         4.00932
   H       -8.49260        10.18928         1.85018
   H       -9.08676        11.47259        -0.02474
   H       -8.97306         9.73236        -0.41568
   H       -8.73101        10.95260        -1.69106
   H       -3.06799        10.24001        -2.38426
   H       -6.31347        13.87661        -2.99954
   H       -5.99996        12.91449        -0.78657
   H       -4.29335        13.20595        -5.99351
   H       -7.14550        13.75411        -4.99975
   H       -5.60211        14.37190        -7.58748
   H      -11.79268        14.87214        -6.57365
   H       -9.68084        16.21592       -10.88569
   H      -11.86823        16.64182       -11.82460
   H      -14.32057        16.68674       -11.60508
   H      -15.39086        16.03357        -9.48517
   H      -14.01642        15.32812        -7.56638
*
