# ORCA input file
# SCF done       -206.200362468764          0.000672969142
! CAM-B3LYP def2-SVP def2/J RIJCOSX Grid4 TightSCF
%maxcore 5000
%tddft
    Mode sTDDFT
    Ethresh 5.0
    maxcore 5000
end

%pal
  nprocs 6
  end
* xyz 0 1
   C        2.91480         3.48985        -1.89545
   C        2.12700         4.11535        -2.82571
   C        2.63170         4.83908        -3.92501
   N        2.98590         5.46668        -4.81849
   C        0.71974         4.07684        -2.81951
   N       -0.42805         4.06600        -2.86532
   C        4.35774         3.31029        -1.99116
   C        4.74392         2.24849        -1.12037
   C        6.04001         1.82964        -1.02938
   C        7.02770         2.47049        -1.81081
   C        6.65172         3.54459        -2.66914
   C        5.30060         3.95338        -2.74765
   C        7.64875         4.18032        -3.43680
   C        8.95340         3.77397        -3.36494
   C        9.32189         2.71503        -2.52163
   C        8.37951         2.07707        -1.76140
   C        3.55973         1.75509        -0.39693
   O        3.48405         0.83187         0.37733
   C        2.45538         2.69130        -0.77830
   C        1.32734         2.72101        -0.02804
   C        0.31138         3.72417         0.02540
   C       -1.00629         3.36741         0.39337
   C       -2.08308         4.32455         0.43845
   N       -3.30855         3.93216         0.82463
   C       -3.51472         2.67321         1.11707
   C       -2.45171         1.71281         1.03231
   N       -1.24565         2.07740         0.68468
   C       -2.70706         0.35199         1.34236
   N       -2.95605        -0.73493         1.60229
   C       -4.80585         2.25975         1.53300
   N       -5.83502         1.89059         1.87403
   C       -1.86267         5.68778         0.15040
   C       -0.54389         6.04937        -0.17507
   C        0.53351         5.09073        -0.22463
   N        1.69588         5.67768        -0.52755
   S        1.44076         7.24499        -0.75801
   N       -0.13063         7.27480        -0.50702
   C       -2.82570         6.74542         0.28916
   N       -4.11754         6.78228        -0.14394
   C       -4.80857         5.81059        -0.96334
   C       -5.98686         5.19171        -0.21897
   C       -4.72624         8.02013         0.15562
   O       -5.85634         8.31156        -0.17708
   C       -3.71019         8.76028         0.87201
   C       -2.54614         7.95793         0.91575
   C       -1.53461         8.66897         1.67249
   O       -0.40686         8.38227         2.01231
   N       -2.15246         9.89509         1.99365
   C       -1.47266        10.88950         2.78862
   C       -1.93369        10.86637         4.24375
   C       -3.44430         9.96047         1.53370
   C       -4.28988        11.08394         1.71008
   C       -5.57511        11.10521         1.27462
   C       -6.40356        12.24438         1.44411
   S       -8.08277        12.27059         0.93086
   C       -8.10179        13.92725         1.52837
   N       -6.94683        14.28989         2.02191
   N       -6.02808        13.37947         1.97917
   C       -9.26141        14.74332         1.45883
   C       -9.27600        16.04409         1.84231
   C      -10.45941        16.82023         1.75005
   C      -10.55745        18.14217         2.06508
   C      -11.75029        18.97030         1.98160
   C      -13.02017        18.55478         1.67668
   C      -14.14183        19.41037         1.62451
   N      -15.09441        20.04772         1.56079
   C      -13.40875        17.22989         1.38593
   N      -13.81078        16.18133         1.14602
   C      -11.36553        20.33822         2.30847
   C       -9.97840        20.35941         2.63076
   C       -9.42285        19.00102         2.51334
   O       -8.27982        18.66432         2.72991
   C       -9.33484        21.51217         2.97874
   C      -10.06205        22.72236         3.01904
   C      -11.45002        22.71107         2.69592
   C      -12.08944        21.50174         2.34086
   C      -12.16660        23.92475         2.73674
   C      -11.54382        25.09379         3.07955
   C      -10.17715        25.10369         3.39710
   C       -9.45210        23.94334         3.36786
   H        6.30952         1.01824        -0.36976
   H        5.04453         4.77488        -3.39839
   H        7.36001         4.99268        -4.08743
   H        9.70919         4.26602        -3.95851
   H       10.35588         2.40756        -2.47722
   H        8.65718         1.26118        -1.11036
   H        1.18806         1.88019         0.64444
   H       -4.09420         5.04911        -1.27619
   H       -5.17950         6.33432        -1.85098
   H       -5.65305         4.72424         0.70270
   H       -6.46022         4.43936        -0.84322
   H       -6.71753         5.96002         0.01723
   H       -1.62766        11.87784         2.34794
   H       -0.40908        10.64088         2.73625
   H       -2.99739        11.07943         4.31994
   H       -1.38668        11.61226         4.81332
   H       -1.74294         9.88835         4.67883
   H       -3.89879        11.96156         2.20342
   H       -6.00780        10.24702         0.77920
   H      -10.15683        14.27616         1.06952
   H       -8.37282        16.50063         2.21915
   H      -11.33955        16.30291         1.38854
   H       -8.28196        21.49939         3.21852
   H      -13.13992        21.52921         2.09921
   H      -13.21850        23.91194         2.49178
   H      -12.10102        26.01811         3.10788
   H       -9.70195        26.03549         3.66485
   H       -8.39973        23.94475         3.61126
*
