# ORCA input file
# SCF done       -196.268637938044          0.000661555158
! CAM-B3LYP def2-SVP def2/J RIJCOSX Grid4 TightSCF
%maxcore 5000
%tddft
    Mode sTDDFT
    Ethresh 5.0
    maxcore 5000
end

%pal
  nprocs 6
  end
* xyz 0 1
   C        2.64492         2.32828         3.67141
   C        3.26066         2.97983         4.70640
   C        4.13715         2.35270         5.61823
   N        4.85369         1.90126         6.39272
   C        3.15967         4.36036         4.98358
   N        3.14574         5.47496         5.25934
   C        2.84457         0.93022         3.31635
   C        2.21818         0.69204         2.06068
   C        2.24670        -0.53348         1.45907
   C        2.90730        -1.60130         2.10559
   C        3.52671        -1.37476         3.36919
   C        3.48724        -0.09262         3.96313
   C        4.17538        -2.45046         4.00940
   C        4.21247        -3.68985         3.43068
   C        3.60373        -3.91116         2.18607
   C        2.96563        -2.88904         1.53723
   C        1.57735         1.92685         1.58228
   O        1.01558         2.07052         0.51745
   C        1.75516         2.91925         2.67769
   C        1.10825         4.10483         2.86168
   C        0.22050         4.82067         2.02108
   S       -0.60805         6.19068         2.73043
   C       -1.43379         6.54510         1.25640
   C       -1.05270         5.63919         0.25677
   C       -0.12806         4.68067         0.69222
   C       -1.51985         5.65133        -1.06956
   N       -1.87596         5.62904        -2.16038
   C       -2.35661         7.62549         1.21420
   C       -3.07850         7.98739         0.13127
   C       -4.02496         9.06815         0.14746
   C       -4.74260         9.43803        -1.03743
   C       -4.69307         8.94975        -2.31985
   S       -5.83118         9.72069        -3.33003
   C       -6.40587        10.71343        -2.07050
   C       -5.73001        10.47533        -0.89757
   C       -5.84171        11.08111         0.38620
   N       -5.09516        10.68467         1.38896
   N       -4.24929         9.70413         1.27768
   C       -6.77442        12.18150         0.61928
   C       -7.85318        12.08421         1.49736
   C       -8.33827        10.90218         2.24847
   O       -7.94765         9.77877         2.24814
   O       -9.43684        11.31609         2.96351
   C       -9.72844        12.63515         2.71831
   O      -10.63724        13.19066         3.25343
   C       -8.72681        13.13852         1.73890
   C       -8.62978        14.40500         1.11957
   C       -7.52805        14.50518         0.23775
   C       -6.66090        13.43012         0.01018
   C       -5.62834        13.86356        -0.95701
   O       -4.71413        13.25751        -1.42375
   O       -5.90488        15.16563        -1.27390
   C       -7.01347        15.62066        -0.60016
   O       -7.39321        16.74244        -0.74134
   C       -9.67396        15.35379         1.38118
   C       -9.81290        16.61762         0.92803
   C      -10.99096        17.38803         1.18939
   C      -12.26222        16.91181         1.16309
   C      -13.46550        17.67708         1.46279
   C      -13.51878        18.82368         2.20746
   C      -14.71278        19.51440         2.50661
   N      -15.64994        20.12028         2.77337
   C      -12.40053        19.44692         2.80303
   N      -11.53969        19.99466         3.32856
   C      -14.60447        16.95507         0.91651
   C      -14.13997        15.72600         0.36641
   C      -12.68387        15.61524         0.54038
   O      -11.98622        14.69062         0.18688
   C      -14.99102        14.82838        -0.21348
   C      -16.37032        15.12498        -0.27118
   C      -16.84196        16.35702         0.26929
   C      -15.93800        17.26677         0.86312
   C      -18.22059        16.64438         0.20104
   C      -19.09275        15.75811        -0.37015
   C      -18.62766        14.54492        -0.90005
   C      -17.29567        14.23485        -0.85136
   H        1.76744        -0.68588         0.50339
   H        3.96026         0.04518         4.92238
   H        4.64413        -2.27497         4.96649
   H        4.71151        -4.50726         3.92906
   H        3.64251        -4.89559         1.74439
   H        2.49491        -3.05319         0.57899
   H        1.25505         4.58685         3.82177
   H        0.26605         3.90716         0.05798
   H       -2.49088         8.18708         2.12887
   H       -2.97406         7.45841        -0.80225
   H       -4.06412         8.18071        -2.72138
   H       -7.18894        11.42102        -2.25499
   H      -10.44709        14.96889         2.03067
   H       -9.02677        17.11798         0.38248
   H      -10.83186        18.44775         1.35206
   H      -14.61446        13.90155        -0.62012
   H      -16.32347        18.19381         1.25710
   H      -18.57446        17.57836         0.61202
   H      -20.14685        15.98666        -0.41642
   H      -19.33017        13.85762        -1.34698
   H      -16.93161        13.30245        -1.25727
*
