# ORCA input file
# SCF done       -197.638726896229          0.000499017511
! CAM-B3LYP def2-SVP def2/J RIJCOSX Grid4 TightSCF
%maxcore 5000
%tddft
    Mode sTDDFT
    Ethresh 5.0
    maxcore 5000
end

%pal
  nprocs 6
  end
* xyz 0 1
   C        3.64628         3.07286        -0.89648
   C        3.31377         3.58702         0.32735
   C        4.26352         4.02322         1.27339
   N        5.00790         4.39134         2.06508
   C        1.98531         3.61631         0.80603
   N        0.92089         3.57539         1.23166
   C        4.98734         2.72487        -1.35098
   C        4.87378         1.76990        -2.40579
   C        5.97706         1.23336        -3.00644
   C        7.26074         1.64317        -2.58178
   C        7.37892         2.60926        -1.53994
   C        6.22013         3.14175        -0.92873
   C        8.66601         3.01606        -1.13441
   C        9.78413         2.49409        -1.72611
   C        9.66718         1.54203        -2.75003
   C        8.43265         1.12505        -3.16813
   C        3.45140         1.52275        -2.69740
   O        2.96610         0.73835        -3.47549
   C        2.71507         2.52479        -1.86165
   C        1.44225         2.88486        -2.17799
   C        0.78832         4.07939        -1.80127
   C       -0.53509         4.44420        -1.94042
   C       -0.67338         5.76811        -1.44151
   C        0.65581         6.23242        -1.08126
   O        1.08771         7.29875        -0.75624
   O        1.48991         5.13387        -1.29086
   C       -1.99218         6.14140        -1.61458
   O       -2.67357         5.12839        -2.22900
   C       -1.83781         4.02996        -2.43745
   O       -2.23209         3.02620        -2.95172
   C       -2.60074         7.35659        -1.24199
   N       -3.71700         7.92949        -1.79720
   C       -4.56702         7.35964        -2.81647
   C       -5.59809         6.40852        -2.21683
   C       -3.96893         9.20611        -1.25408
   O       -4.87136         9.92841        -1.61570
   C       -2.93251         9.37265        -0.25467
   C       -2.11461         8.22883        -0.26488
   C       -1.17716         8.34611         0.83650
   O       -0.37702         7.58131         1.31267
   N       -1.44657         9.63136         1.38554
   C       -0.61159        10.11872         2.45648
   C        0.45364        11.08293         1.94066
   C       -2.48937        10.24452         0.74903
   C       -3.10723        11.50250         0.97189
   C       -2.80976        12.47210         1.87144
   C       -3.54104        13.69060         1.96147
   S       -3.23868        14.76938         3.29446
   C       -4.42661        15.88863         2.72405
   C       -4.79743        17.11744         3.43700
   O       -5.74064        17.78547         3.10043
   O       -4.03728        17.46688         4.48536
   C       -5.03013        15.43704         1.55566
   C       -4.51687        14.19794         1.13352
   C       -6.02874        16.20226         0.84335
   C       -7.16525        15.68528         0.33352
   C       -8.17987        16.40385        -0.43109
   C       -8.01957        17.62181        -1.02938
   C       -9.02835        18.27644        -1.76939
   N       -9.81048        18.85495        -2.37794
   C       -6.81674        18.36256        -1.03913
   N       -5.86361        18.99539        -1.12919
   C       -9.35429        15.54907        -0.51629
   C       -9.05978        14.29895         0.10225
   C       -7.69061        14.31707         0.63567
   O       -7.12560        13.42920         1.23454
   C       -9.97144        13.28220         0.14410
   C      -11.24258        13.47220        -0.44034
   C      -11.54983        14.72388        -1.04983
   C      -10.58769        15.75818        -1.07729
   C      -12.82363        14.90299        -1.62752
   C      -13.74848        13.89487        -1.60863
   C      -13.44404        12.66245        -1.01056
   C      -12.21825        12.45563        -0.43857
   H        5.87199         0.50667        -3.79828
   H        6.33379         3.87832        -0.14849
   H        8.75124         3.74704        -0.34394
   H       10.76563         2.81204        -1.40800
   H       10.55995         1.14124        -3.20605
   H        8.33628         0.39252        -3.95602
   H        0.89188         2.24087        -2.85380
   H       -3.95116         6.83747        -3.55146
   H       -5.07261         8.20198        -3.29673
   H       -5.10659         5.56215        -1.74479
   H       -6.24992         6.03664        -3.00188
   H       -6.20181         6.92921        -1.47728
   H       -0.12190         9.23381         2.87429
   H       -1.23209        10.57077         3.23376
   H        1.09859        10.56537         1.23506
   H        1.06021        11.43960         2.76844
   H        0.00560        11.93657         1.43650
   H       -3.94343        11.66428         0.30433
   H       -2.00475        12.36369         2.58145
   H       -3.30690        16.85687         4.65603
   H       -4.83549        13.70899         0.23255
   H       -5.83501        17.26413         0.76851
   H       -9.72110        12.34238         0.61339
   H      -10.85079        16.69504        -1.54224
   H      -13.05264        15.85255        -2.08836
   H      -14.72037        14.04097        -2.05540
   H      -14.18594        11.87807        -1.00570
   H      -11.97796        11.50919         0.02310
*
