# ORCA input file
# SCF done       -182.040846274251          0.000350669435
! CAM-B3LYP def2-SVP def2/J RIJCOSX Grid4 TightSCF
%maxcore 5000
%tddft
    Mode sTDDFT
    Ethresh 5.0
    maxcore 5000
end

%pal
  nprocs 6
  end
* xyz 0 1
   C        1.70264         2.72323        -8.55729
   N        0.88136         3.59158        -9.20306
   C        0.50144         3.52326       -10.59148
   C       -0.58308         2.47421       -10.82446
   C        0.35827         4.56716        -8.31652
   O       -0.40206         5.44649        -8.66244
   C        0.95125         4.22505        -7.04714
   C        1.77847         3.07444        -7.23812
   C        2.37031         2.75214        -5.95908
   O        3.13526         1.88139        -5.60764
   N        1.86389         3.73680        -5.07725
   C        2.22330         3.67322        -3.68230
   C        1.12038         3.03839        -2.83720
   C        1.01416         4.61460        -5.71950
   C        0.30470         5.74962        -5.22473
   C        0.24731         6.25639        -3.97532
   C       -0.50072         7.42421        -3.57635
   C       -1.27056         8.19446        -4.44813
   C       -1.97475         9.29732        -3.99547
   N       -2.79622         9.97095        -4.96986
   O       -2.45304         9.89682        -6.13016
   O       -3.79041        10.54981        -4.58214
   C       -1.93051         9.71506        -2.64874
   C       -1.14706         8.93028        -1.78718
   C       -0.46711         7.82319        -2.22900
   C       -2.57774        10.91146        -2.17805
   C       -2.92347        11.13830        -0.89294
   C       -3.54055        12.33521        -0.44021
   O       -3.77037        13.38014        -1.26803
   C       -4.36096        14.36272        -0.56191
   C       -4.54295        13.95084         0.75426
   C       -4.00762        12.64073         0.83746
   O       -3.88815        11.78532         1.87218
   C       -4.35889        12.21498         3.13426
   O       -5.14148        14.66548         1.76304
   C       -6.55588        14.71724         1.67584
   C       -4.66858        15.60908        -1.22093
   C       -4.65719        15.68560        -2.61437
   C       -4.96186        16.87452        -3.25035
   N       -5.03161        16.85012        -4.69192
   O       -4.31692        16.06092        -5.26723
   O       -5.82507        17.59343        -5.22910
   C       -5.26538        18.04759        -2.53475
   C       -5.25500        17.94956        -1.13647
   C       -4.96855        16.76883        -0.49231
   C       -5.49427        19.31024        -3.19517
   C       -6.31675        20.27145        -2.72498
   C       -6.49481        21.50973        -3.40633
   N       -7.42710        22.45686        -3.04657
   C       -8.40588        22.34798        -1.99416
   C       -9.57162        21.44501        -2.39165
   C       -7.40547        23.57523        -3.90747
   O       -8.14054        24.53215        -3.77877
   C       -6.35486        23.26913        -4.84904
   C       -5.81185        21.99966        -4.51012
   C       -4.74473        21.72634        -5.44062
   O       -3.95918        20.80363        -5.53445
   N       -4.72977        22.84367        -6.30448
   C       -3.79467        22.87319        -7.40189
   C       -4.42733        22.36248        -8.69485
   C       -5.69082        23.76404        -5.96052
   C       -6.00916        25.03233        -6.55737
   C       -5.56849        25.58727        -7.68704
   H        2.18323         1.92036        -9.08578
   H        1.38635         3.29909       -11.19425
   H        0.12375         4.51365       -10.85964
   H       -0.23444         1.48797       -10.52489
   H       -0.85025         2.44621       -11.87706
   H       -1.46996         2.72133       -10.24610
   H        2.48844         4.67003        -3.32147
   H        3.11615         3.04120        -3.63776
   H        0.18436         3.58431        -2.93351
   H        1.41625         3.02467        -1.79153
   H        0.95502         2.01467        -3.16360
   H       -0.25032         6.23547        -6.01669
   H        0.78462         5.78664        -3.16618
   H       -1.34999         7.94208        -5.49464
   H       -1.06122         9.22614        -0.75367
   H        0.11984         7.24839        -1.52670
   H       -2.82488        11.67088        -2.90533
   H       -2.78830        10.39668        -0.11966
   H       -3.94374        13.18783         3.40495
   H       -4.02694        11.45906         3.84379
   H       -5.45093        12.27187         3.15158
   H       -6.99338        13.71700         1.76266
   H       -6.88350        15.16690         0.73399
   H       -6.88454        15.33156         2.51175
   H       -4.43290        14.81098        -3.20607
   H       -5.44146        18.83869        -0.55427
   H       -4.94132        16.73828         0.58523
   H       -4.97665        19.48480        -4.12908
   H       -6.90249        20.10223        -1.83213
   H       -8.77224        23.36373        -1.81894
   H       -7.92569        21.98532        -1.08027
   H      -10.07230        21.85308        -3.26599
   H      -10.28802        21.38533        -1.57669
   H       -9.22428        20.44211        -2.63060
   H       -2.97627        22.20451        -7.11706
   H       -3.39754        23.88414        -7.51586
   H       -4.72513        21.32452        -8.56937
   H       -3.70867        22.42171        -9.50785
   H       -5.30880        22.94335        -8.95748
   H       -6.73882        25.57070        -5.96413
   H       -4.87058        25.12264        -8.35872
   H       -5.92529        26.55931        -7.98271
*
