# ORCA input file
# SCF done       -177.130934388866          0.000734009187
! CAM-B3LYP def2-SVP def2/J RIJCOSX Grid4 TightSCF
%maxcore 5000
%tddft
    Mode sTDDFT
    Ethresh 5.0
    maxcore 5000
end

%pal
  nprocs 6
  end
* xyz 0 1
   C       -2.37663         0.35222        -7.80750
   O       -1.70112        -0.75609        -7.45724
   C       -2.48483        -1.50281        -6.67831
   C       -3.70352        -0.85104        -6.51295
   C       -3.61747         0.35718        -7.25952
   N       -4.84660        -1.29109        -5.81682
   O       -4.81922        -2.39240        -5.29388
   O       -5.79876        -0.53957        -5.77781
   C       -2.01069        -2.76524        -6.16464
   C       -1.50111        -3.82666        -6.88472
   N       -1.36506        -3.91565        -8.28794
   O       -0.77166        -4.88114        -8.72909
   O       -1.85938        -3.03722        -8.96962
   C       -1.23073        -4.92725        -5.99210
   C       -1.64209        -4.57598        -4.75347
   C       -2.13383        -3.21487        -4.79285
   C       -2.55270        -2.44883        -3.71920
   C       -2.35285        -1.05320        -3.53811
   C       -2.65212        -0.72749        -2.24222
   C       -3.14381        -1.88556        -1.57176
   N       -3.60323        -1.86876        -0.24628
   O       -3.54316        -0.81188         0.35659
   O       -4.02316        -2.90999         0.24036
   C       -3.15116        -2.96172        -2.47035
   C       -3.81547        -4.18328        -2.31403
   C       -4.19710        -4.96843        -3.37706
   C       -4.80108        -6.23177        -3.38912
   N       -5.25098        -7.04140        -2.36937
   C       -5.34940        -6.72623        -0.96087
   C       -6.48421        -5.74810        -0.67331
   C       -5.75731        -8.25323        -2.85436
   O       -6.23161        -9.12420        -2.14778
   C       -5.56495        -8.19128        -4.29169
   C       -4.99360        -6.94947        -4.58494
   C       -4.73113        -6.88627        -6.01194
   O       -4.21374        -6.04572        -6.70848
   N       -5.20024        -8.12816        -6.49618
   C       -5.16127        -8.44429        -7.90443
   C       -6.52864        -8.27578        -8.56117
   C       -5.69549        -8.91937        -5.49351
   C       -6.20065       -10.21818        -5.66673
   C       -6.68817       -10.93381        -4.60557
   C       -7.19165       -12.23621        -4.66133
   S       -7.24705       -13.18018        -6.12238
   C       -7.94003       -14.54081        -5.32361
   C       -8.14010       -14.28835        -3.95729
   C       -7.71091       -12.97807        -3.57903
   C       -7.82961       -12.55326        -2.24677
   C       -8.36832       -13.41146        -1.31436
   C       -8.50047       -13.00724         0.03576
   N       -8.61363       -12.67980         1.12726
   C       -8.80099       -14.71918        -1.69132
   C       -9.35274       -15.57882        -0.71086
   N       -9.80316       -16.28946         0.06586
   C       -8.68714       -15.15238        -2.99156
   C       -8.21616       -15.72043        -6.07185
   O       -8.77529       -16.80960        -5.47728
   C       -8.91299       -17.75841        -6.39560
   C       -8.44628       -17.30826        -7.60847
   C       -7.99233       -15.98460        -7.40628
   N       -8.42198       -18.03618        -8.83144
   O       -8.85915       -19.16546        -8.80748
   O       -7.96670       -17.47315        -9.80080
   H       -1.87081         1.05168        -8.44211
   H       -4.39020         1.09052        -7.35462
   H       -0.79540        -5.85320        -6.31323
   H       -1.54733        -5.15172        -3.85346
   H       -1.90978        -0.39821        -4.26368
   H       -2.55100         0.23362        -1.77351
   H       -4.09394        -4.43074        -1.29965
   H       -4.05006        -4.57127        -4.37323
   H       -4.39212        -6.33810        -0.60616
   H       -5.54669        -7.67588        -0.45502
   H       -6.38253        -4.84119        -1.26397
   H       -6.47167        -5.47678         0.37791
   H       -7.44214        -6.20706        -0.90581
   H       -4.78580        -9.46245        -8.03927
   H       -4.45028        -7.74440        -8.35179
   H       -7.26622        -8.93404        -8.10705
   H       -6.45662        -8.50759        -9.61983
   H       -6.86823        -7.24876        -8.45409
   H       -6.19735       -10.65658        -6.65497
   H       -6.68730       -10.46662        -3.62941
   H       -7.50266       -11.56890        -1.94822
   H       -9.01523       -16.14219        -3.26409
   H       -9.34054       -18.69922        -6.10918
   H       -7.56525       -15.33798        -8.14403
*
