# ORCA input file
# SCF done       -198.024592551885          0.000719798482
! CAM-B3LYP def2-SVP def2/J RIJCOSX Grid4 TightSCF
%maxcore 5000
%tddft
    Mode sTDDFT
    Ethresh 5.0
    maxcore 5000
end

%pal
  nprocs 6
  end
* xyz 0 1
   C        4.38434        -1.01791         2.43081
   S        3.60355        -0.24809         1.12428
   C        4.30944         1.29513         1.54481
   C        5.13305         1.15916         2.64854
   C        5.16668        -0.16378         3.14833
   C        5.91969        -0.56515         4.38951
   C        4.94173        -0.72196         5.44805
   N        4.15337        -0.82037         6.26925
   C        6.95576         0.49390         4.78877
   C        6.32620         1.88142         4.73369
   C        5.96099         2.24176         3.28519
   C        7.17913         2.37164         2.50793
   N        8.15020         2.41480         1.90755
   C        4.01684         2.48048         0.79327
   S        5.13566         3.81514         0.78964
   C        4.13959         4.75690        -0.28021
   C        2.96799         4.08463        -0.55651
   C        2.90808         2.79574         0.02201
   C        1.78084         1.87923        -0.34806
   N        2.27683         1.28515        -1.63609
   O        2.05197         1.89689        -2.65053
   O        2.91795         0.26912        -1.55654
   C        0.43994         2.58321        -0.57956
   C        0.52353         4.09825        -0.44503
   C        1.73951         4.64690        -1.20650
   N        1.66709         6.12022        -1.05557
   O        1.37808         6.75753        -2.03948
   O        1.84708         6.57449         0.04458
   C        4.66515         6.00347        -0.73286
   C        4.43949         6.55220        -1.95156
   C        5.04419         7.77573        -2.34307
   N        4.92977         8.32456        -3.59507
   C        4.17798         7.81111        -4.71587
   C        2.71332         8.23558        -4.65965
   C        5.63225         9.53855        -3.70280
   O        5.68067        10.19409        -4.72503
   C        6.22450         9.72878        -2.39739
   C        5.85367         8.62979        -1.58983
   C        6.45643         8.81207        -0.28579
   O        6.43921         8.12940         0.72016
   N        7.14146        10.03051        -0.38642
   C        7.90879        10.55024         0.72074
   C        9.39921        10.25804         0.56854
   C        7.02676        10.59017        -1.63941
   C        7.63275        11.80564        -2.01475
   C        7.52027        12.32944        -3.27107
   C        8.13286        13.53144        -3.68930
   C        8.94855        14.39685        -2.98212
   C        9.34288        15.46696        -3.82597
   C        8.70510        15.21532        -5.13426
   C        7.99165        14.06475        -5.03806
   C        8.80280        16.00975        -6.28177
   N        8.86253        16.63813        -7.24173
   C       10.16389        16.52803        -3.50820
   C       10.58965        17.58492        -4.35718
   C       11.43110        18.42433        -3.66170
   C       11.54212        17.91575        -2.30472
   C       10.79157        16.78457        -2.20067
   C       10.65689        16.01867        -1.03978
   N       10.56679        15.39671        -0.07692
   C       12.05236        19.58885        -4.20700
   S       11.40854        20.24491        -5.69259
   C       12.58024        21.48814        -5.70069
   C       13.43017        21.41495        -4.63475
   C       13.14145        20.32597        -3.78115
   C       13.97069        20.05041        -2.55474
   C       13.24529        20.54900        -1.40332
   N       12.67087        20.97395        -0.51125
   C       15.33359        20.75601        -2.63663
   C       15.14658        22.22665        -2.99437
   C       14.59257        22.34841        -4.42069
   C       15.62077        21.99371        -5.37873
   N       16.42902        21.68470        -6.12493
   H        4.22639        -2.06461         2.60089
   H        6.40375        -1.53718         4.23746
   H        7.80296         0.44632         4.10073
   H        7.32041         0.28507         5.79622
   H        7.02366         2.62527         5.12251
   H        5.42248         1.90301         5.34752
   H        5.43338         3.20222         3.26189
   H        1.69508         1.05111         0.35729
   H       -0.29425         2.20492         0.13090
   H        0.09247         2.34068        -1.58632
   H        0.63004         4.38183         0.60501
   H       -0.39342         4.54527        -0.83232
   H        1.67364         4.41188        -2.27444
   H        5.35658         6.49119        -0.05723
   H        3.81615         6.05053        -2.67805
   H        4.27159         6.72297        -4.74991
   H        4.64523         8.23204        -5.61106
   H        2.22797         7.86239        -3.76142
   H        2.18734         7.84857        -5.52778
   H        2.64420         9.32037        -4.66721
   H        7.52665        10.04920         1.61446
   H        7.73067        11.62459         0.81587
   H        9.56494         9.18431         0.52490
   H        9.93958        10.66009         1.42071
   H        9.79547        10.70779        -0.33906
   H        8.21053        12.33274        -1.26982
   H        6.93475        11.79918        -4.01067
   H        9.25268        14.29430        -1.95977
   H        7.40916        13.60093        -5.81258
   H       10.31220        17.69399        -5.38728
   H       12.07595        18.37939        -1.49738
   H       12.59005        22.20860        -6.49495
   H       14.11870        18.97110        -2.43137
   H       15.94537        20.26628        -3.39833
   H       15.84472        20.66505        -1.67614
   H       16.09962        22.75473        -2.92620
   H       14.44679        22.69080        -2.29502
   H       14.28804        23.38151        -4.62738
*
