# ORCA input file
# SCF done       -238.408853230446          0.000550132827
! CAM-B3LYP def2-SVP def2/J RIJCOSX Grid4 TightSCF
%maxcore 5000
%tddft
    Mode sTDDFT
    Ethresh 5.0
    maxcore 5000
end

%pal
  nprocs 6
  end
* xyz 0 1
   C       -0.40394         0.09930         2.74272
   C       -1.25532        -0.18029         3.77382
   C       -2.18126         0.74583         4.30195
   N       -2.95351         1.45695         4.76322
   C       -1.25042        -1.40589         4.47286
   N       -1.25011        -2.37057         5.09520
   C       -0.18564         1.40136         2.12731
   C        1.04538         1.38719         1.44173
   C        1.51847         2.50571         0.78431
   C        0.74498         3.65941         0.80461
   C       -0.48685         3.67567         1.47389
   C       -0.95805         2.55039         2.14064
  Cl       -1.43418         5.10411         1.47506
  Cl        1.30062         5.06983         0.00276
   C        1.65564         0.04717         1.53952
   O        2.73098        -0.32664         1.14065
   C        0.61405        -0.78969         2.20615
   C        0.65922        -2.13623         2.11352
   C       -0.38212        -3.08333         2.37534
   C       -1.69080        -3.09205         1.92751
   N       -2.36660        -2.13666         1.14545
   O       -3.47633        -2.43122         0.74282
   O       -1.81670        -1.06930         0.90997
   C       -2.31678        -4.34033         2.29931
   C       -1.40803        -5.10423         2.94650
   C       -0.16814        -4.37760         3.03911
   C        0.96582        -4.73557         3.73036
   C        1.98979        -3.85471         4.20827
   C        2.81927        -4.55047         5.02719
   C        2.38924        -5.92463         5.07395
   N        3.19004        -6.92090         5.67114
   O        4.13331        -6.54369         6.34058
   O        2.92988        -8.09357         5.45505
   C        1.25941        -6.07667         4.28290
   C        0.54371        -7.25370         3.95089
   C        0.27889        -8.26316         4.82672
   C       -0.39580        -9.47804         4.57859
   N       -0.61546       -10.13728         3.39363
   C       -0.03817        -9.85961         2.09675
   C        1.48295        -9.97124         2.11471
   C       -1.34165       -11.33561         3.58865
   O       -1.63666       -12.09785         2.69685
   C       -1.59631       -11.37044         5.01505
   C       -0.99835       -10.24111         5.58963
   C       -1.27120       -10.26914         7.01292
   O       -0.97166        -9.52089         7.91183
   N       -2.04627       -11.44630         7.19871
   C       -2.36753       -11.87009         8.54301
   C       -1.55838       -13.09248         8.96390
   C       -2.24796       -12.10633         6.01598
   C       -2.97849       -13.28575         5.73204
   C       -3.85289       -13.95826         6.52534
   C       -4.52678       -15.13575         6.10807
   S       -4.21468       -15.85167         4.55889
   C       -5.32917       -17.14825         4.86180
   C       -5.94783       -16.99210         6.09671
   C       -5.49047       -15.86792         6.80168
   C       -6.02298       -15.47774         8.15261
   N       -4.88376       -15.42274         9.12512
   O       -4.57583       -14.32908         9.53407
   O       -4.35366       -16.45860         9.41991
   C       -7.04819       -16.47829         8.68992
   C       -7.93962       -17.00122         7.57356
   C       -7.08022       -17.82320         6.61121
   N       -7.94595       -18.27129         5.49567
   O       -8.31256       -17.43328         4.71040
   O       -8.23955       -19.44179         5.45739
   C       -5.52740       -18.07931         3.79958
   C       -5.77962       -19.41272         3.87775
   C       -6.12686       -20.29316         2.76874
   C       -6.42031       -19.91568         1.48866
   C       -6.77912       -20.81798         0.46156
   N       -7.06668       -21.49643        -0.41725
   C       -6.41315       -18.58877         1.00271
   N       -6.42788       -17.54078         0.53580
   C       -6.17958       -21.65296         3.29303
   C       -5.88320       -21.62949         4.66769
   C       -5.62033       -20.24838         5.09654
   O       -5.27170       -19.87359         6.19624
   C       -5.86690       -22.77924         5.43152
   C       -6.15804       -23.98633         4.81011
   C       -6.45409       -24.02099         3.44040
   C       -6.46607       -22.86020         2.67537
  Cl       -6.80810       -25.51906         2.68504
  Cl       -6.15564       -25.43769         5.72246
   H        2.46461         2.48198         0.26687
   H       -1.91440         2.58872         2.63658
   H        1.59159        -2.55096         1.73875
   H       -3.34286        -4.56852         2.08333
   H       -1.59987        -6.04634         3.41991
   H        2.02856        -2.80104         4.01635
   H        3.67381        -4.18366         5.56388
   H        0.15288        -7.29041         2.94459
   H        0.52461        -8.12482         5.87122
   H       -0.36079        -8.87791         1.74094
   H       -0.45837       -10.61556         1.42608
   H        1.92326        -9.28942         2.83806
   H        1.87698        -9.74104         1.12892
   H        1.77788       -10.98402         2.37734
   H       -3.43869       -12.05606         8.64260
   H       -2.11042       -11.02229         9.18457
   H       -1.71493       -13.92456         8.28142
   H       -1.86600       -13.39977         9.95853
   H       -0.49812       -12.85327         8.98067
   H       -2.82056       -13.64319         4.72055
   H       -4.07830       -13.58962         7.51236
   H       -6.43551       -14.46306         8.11328
   H       -7.65349       -16.00208         9.46220
   H       -6.51140       -17.31883         9.13778
   H       -8.40286       -16.17374         7.03040
   H       -8.72751       -17.62831         7.99268
   H       -6.69924       -18.72638         7.10629
   H       -5.41529       -17.64179         2.81500
   H       -5.63784       -22.73716         6.48451
   H       -6.69678       -22.92742         1.62495
*
