# ORCA input file
# SCF done       -228.268058146638          0.000992005212
! CAM-B3LYP def2-SVP def2/J RIJCOSX Grid4 TightSCF
%maxcore 5000
%tddft
    Mode sTDDFT
    Ethresh 5.0
    maxcore 5000
end

%pal
  nprocs 6
  end
* xyz 0 1
   C       -0.23529        15.67237         4.23934
   C       -1.12629        16.69330         4.06257
   C       -0.85043        18.04261         4.37790
   N       -0.69132        19.15439         4.61280
   C       -2.45277        16.57252         3.59920
   N       -3.54845        16.59100         3.25942
   C        1.09545        15.80846         4.82507
   C        1.62939        14.51167         5.08029
   C        2.86329        14.33563         5.63819
   C        3.63909        15.46868         5.96756
   C        3.11917        16.76881         5.70295
   C        1.83791        16.92061         5.12689
   C        3.90634        17.89342         6.02585
   C        5.14571        17.74263         6.58496
   C        5.65625        16.46187         6.84569
   C        4.91909        15.34927         6.54396
   C        0.67533        13.49258         4.61978
   O        0.78269        12.29013         4.66568
   C       -0.44913        14.25288         3.98940
   C       -1.36288        13.55794         3.28296
   C       -2.43033        13.97993         2.40863
   C       -3.75162        13.68046         2.65019
   N       -4.19925        13.11231         3.85060
   O       -5.37633        12.83282         3.95994
   O       -3.35607        12.92233         4.71925
   C       -4.57584        14.11841         1.54791
   C       -3.75422        14.60337         0.59329
   C       -2.38328        14.53602         1.05621
   C       -1.27588        14.93150         0.34388
   C       -0.02556        15.37908         0.86288
   C        0.62760        16.05085        -0.12074
   C       -0.11635        15.96989        -1.34729
   N        0.39885        16.58753        -2.49246
   O       -0.30728        16.72599        -3.48510
   O        1.54879        16.99525        -2.43547
   C       -1.26038        15.18881        -1.12555
   C       -2.07292        14.41473        -1.97501
   C       -2.04463        14.46512        -3.34622
   C       -2.49033        13.52754        -4.29546
   S       -1.47816        13.56718        -5.71752
   C       -2.05089        12.06978        -6.29453
   C       -3.08663        11.58325        -5.49387
   C       -3.38257        12.43338        -4.37224
   C       -4.52882        12.11564        -3.60652
   C       -5.09565        12.98718        -2.52560
   F       -4.81601        14.29071        -2.65771
   F       -6.43544        12.91206        -2.47764
   F       -4.67138        12.61523        -1.29893
   C       -5.23051        10.95889        -3.87059
   C       -4.86898        10.07855        -4.88825
   C       -3.81258        10.37775        -5.71990
   O       -3.41545         9.62956        -6.76579
   C       -4.17771         8.48701        -7.09943
   C       -1.32054        11.44772        -7.39695
   C        0.02368        11.15030        -7.16800
   C        0.81589        11.24206        -5.91731
   O        0.46853        11.60367        -4.82669
   O        2.06292        10.80326        -6.18435
   C        2.19938        10.40006        -7.53728
   C        0.84974        10.60539        -8.14413
   C        0.35849        10.32908        -9.40588
   C       -0.98067        10.57920        -9.63645
   C       -1.83223        11.13829        -8.67046
   C       -3.22183        11.29596        -9.04231
   C       -4.12897        12.13903        -8.51485
   C       -5.52230        12.05610        -8.81564
   C       -6.11609        11.65457        -9.97083
   C       -7.54495        11.42771       -10.11375
   C       -8.34660        10.95310        -9.10930
   C       -9.72561        10.70265        -9.25757
   N      -10.85169        10.50083        -9.34360
   C       -7.81625        10.55001        -7.86659
   N       -7.38204        10.13529        -6.88696
   C       -7.88918        11.59429       -11.51424
   C       -6.67676        11.73331       -12.25229
   C       -5.52111        11.67428       -11.33820
   O       -4.35060        11.67401       -11.64914
   C       -6.67851        11.87247       -13.61058
   C       -7.91157        11.88361       -14.30065
   C       -9.12701        11.75255       -13.56661
   C       -9.09621        11.60634       -12.16085
   C      -10.34896        11.76487       -14.26928
   C      -10.37201        11.89706       -15.63126
   C       -9.17563        12.02511       -16.35266
   C       -7.97168        12.01821       -15.70161
   H        3.24300        13.34172         5.82249
   H        1.47922        17.91807         4.92893
   H        3.50810        18.87705         5.82531
   H        5.74041        18.60978         6.82998
   H        6.63684        16.36178         7.28648
   H        5.30664        14.36066         6.74237
   H       -1.26250        12.47704         3.39195
   H       -5.64647        14.06520         1.54638
   H       -4.04482        15.06888        -0.32719
   H        0.29140        15.29614         1.88083
   H        1.55951        16.57911        -0.03940
   H       -2.64407        13.64609        -1.47810
   H       -1.45518        15.26285        -3.78580
   H       -6.10367        10.72720        -3.28087
   H       -5.46327         9.19405        -5.03281
   H       -4.12441         7.73104        -6.31165
   H       -3.72900         8.09288        -8.00931
   H       -5.22232         8.75238        -7.28459
   H        2.52204         9.35344        -7.56035
   H        2.97310        11.01345        -8.01279
   H        0.98893         9.91475       -10.17655
   H       -1.39947        10.35971       -10.60732
   H       -3.54777        10.62097        -9.82056
   H       -3.84963        12.84229        -7.74402
   H       -6.17407        12.35344        -7.99943
   H       -5.75023        11.96945       -14.15385
   H      -10.02834        11.51529       -11.62478
   H      -11.26740        11.66396       -13.71008
   H      -11.31292        11.90352       -16.16037
   H       -9.21238        12.12935       -17.42657
   H       -7.04748        12.11638       -16.25203
*
