# ORCA input file
# SCF done       -203.846471575477          0.000548280901
! CAM-B3LYP def2-SVP def2/J RIJCOSX Grid4 TightSCF
%maxcore 5000
%tddft
    Mode sTDDFT
    Ethresh 5.0
    maxcore 5000
end

%pal
  nprocs 6
  end
* xyz 0 1
   C       -3.06070         1.85536        -2.56479
   C       -3.68820         3.07357        -2.54084
   C       -4.46449         3.58630        -3.59989
   N       -5.07653         4.07581        -4.43832
   C       -3.64072         3.94130        -1.43454
   N       -3.58431         4.66816        -0.54677
   C       -3.26256         0.81641        -3.56549
   C       -2.80738        -0.42564        -3.03279
   C       -2.90566        -1.58897        -3.74080
   C       -3.46058        -1.56032        -5.04009
   C       -3.90264        -0.31937        -5.58437
   C       -3.79817         0.86820        -4.82472
   C       -4.44524        -0.30382        -6.88547
   C       -4.54948        -1.45713        -7.61448
   C       -4.11581        -2.67830        -7.07715
   C       -3.58356        -2.72889        -5.81721
   C       -2.24113        -0.20664        -1.69228
   O       -1.81252        -1.02366        -0.91473
   C       -2.25583         1.28224        -1.50373
   C       -1.47148         1.80380        -0.53822
   N       -1.05901         3.09785        -0.35469
   C       -0.56551         3.56004         0.90379
   O       -0.45847         2.86153         1.87016
   C       -0.26182         4.96882         0.69830
   C       -0.47939         5.31574        -0.59433
   C       -0.95572         4.08915        -1.31157
   O       -1.17131         3.92943        -2.48923
   C       -0.32361         6.62381        -1.14239
   S       -0.14638         7.92300        -0.00371
   C        0.00909         9.10259        -1.25812
   C       -0.11055         8.50306        -2.50858
   C       -0.27563         7.10671        -2.44696
   C       -0.31173         6.26826        -3.68380
   N        0.69952         5.15732        -3.63175
   O        0.72984         4.43560        -4.59065
   O        1.43884         5.09949        -2.68195
   C       -0.00092         7.07603        -4.94782
   C       -0.77206         8.38543        -4.91257
   C       -0.18950         9.26193        -3.79877
   N       -1.10668        10.43392        -3.66551
   O       -2.10709        10.28209        -3.01633
   O       -0.79326        11.43150        -4.26519
   C        0.24764        10.45165        -0.86435
   C        0.81189        11.43255        -1.60988
   C        1.03918        12.75906        -1.14821
   C        0.75463        13.32758         0.07098
   C        1.17941        14.69159         0.06361
   C        1.74524        14.93631        -1.27927
   C        1.65675        13.78185        -1.98509
   C        2.28006        16.13555        -1.76386
   N        2.72585        17.10235        -2.19475
   C        1.09672        15.59616         1.09179
   C        1.52773        16.96397         1.08315
   C        1.21893        17.53998         2.28934
   C        0.62500        16.51418         3.14211
   C        0.55012        15.35551         2.43674
   C        0.06974        14.13949         2.93656
   N       -0.31565        13.14689         3.36742
   C        1.46688        18.89839         2.64938
   C        0.66439        19.65470         3.44185
   C        0.91089        21.00071         3.93327
   C        2.10803        21.66446         3.90449
   C        2.30400        22.96401         4.41901
   N        2.52254        24.01847         4.81566
   C        3.30987        21.13307         3.38933
   N        4.32351        20.75212         3.00882
   C       -0.32451        21.48495         4.53445
   C       -1.30636        20.45412         4.46062
   C       -0.73774        19.27885         3.78629
   O       -1.30736        18.24856         3.49862
   C       -2.56910        20.62279         4.95311
   C       -2.91374        21.85194         5.55735
   C       -1.93896        22.88941         5.63283
   C       -0.64118        22.68737         5.11069
   C       -2.29506        24.11293         6.23598
   C       -3.55233        24.30393         6.74136
   C       -4.51101        23.28219         6.66617
   C       -4.19867        22.08206         6.08708
   H       -2.56151        -2.52014        -3.31599
   H       -4.13100         1.79582        -5.26358
   H       -4.77986         0.63824        -7.29424
   H       -4.96701        -1.43483        -8.60990
   H       -4.20477        -3.57847        -7.66660
   H       -3.24741        -3.66613        -5.39865
   H       -1.05964         1.11798         0.19765
   H        0.08993         5.59856         1.49394
   H       -1.28379         5.77573        -3.79181
   H       -0.27420         6.48862        -5.82388
   H        1.07077         7.28613        -5.00079
   H       -1.82700         8.18891        -4.70719
   H       -0.69229         8.90425        -5.86864
   H        0.78521         9.65196        -4.11225
   H       -0.00575        10.66979         0.16412
   H        1.15649        11.23887        -2.61512
   H        0.29381        12.84804         0.91090
   H        1.97229        13.62741        -3.00058
   H        1.96827        17.46199         0.24136
   H        0.35436        16.64617         4.17159
   H        2.34874        19.34410         2.20526
   H       -3.29501        19.82623         4.88378
   H        0.07144        23.49420         5.17629
   H       -1.55363        24.89628         6.29218
   H       -3.81524        25.24415         7.20216
   H       -5.49825        23.45080         7.06923
   H       -4.93248        21.29186         6.02609
*
