# ORCA input file
# SCF done       -210.664236848739          0.000984050809
! CAM-B3LYP def2-SVP def2/J RIJCOSX Grid4 TightSCF
%maxcore 5000
%tddft
    Mode sTDDFT
    Ethresh 5.0
    maxcore 5000
end

%pal
  nprocs 6
  end
* xyz 0 1
   C       -2.44979         8.57531        -3.15765
   C       -3.29941         7.58073        -3.54960
   C       -4.62976         7.80256        -3.96285
   N       -5.71890         7.92293        -4.30420
   C       -2.91798         6.23180        -3.69192
   N       -2.65238         5.13175        -3.88515
   C       -2.69907        10.00453        -3.24723
   C       -1.45267        10.69608        -3.17714
   C       -1.38096        12.05562        -3.28418
   C       -2.56995        12.79625        -3.46755
   C       -3.81954        12.11191        -3.52136
   C       -3.86508        10.70455        -3.40537
   C       -4.99846        12.86406        -3.70218
   C       -4.94858        14.22556        -3.82639
   C       -3.71837        14.89819        -3.77373
   C       -2.55513        14.19911        -3.59808
   C       -0.36868         9.72586        -2.97235
   O        0.82579         9.91069        -2.94926
   C       -1.05928         8.41675        -2.76202
   C       -0.41832         7.41787        -2.13325
   C       -0.97021         6.17802        -1.61442
   C       -2.10297         6.16913        -0.79970
   C       -2.94647         7.27572        -0.29694
   O       -2.86420         8.45779        -0.50250
   O       -3.91097         6.74494         0.48568
   C       -3.80040         5.33337         0.56640
   C       -2.60993         4.98802        -0.26617
   C       -2.01392         3.76992        -0.53408
   C       -0.89879         3.76013        -1.34831
   C       -0.36306         4.93266        -1.89866
   C        0.77005         4.91223        -2.79238
   C        1.27685         3.82934        -3.41597
   C        2.37559         3.80579        -4.32335
   N        3.36539         4.74988        -4.50862
   C        3.67575         5.89203        -3.67940
   C        3.12700         7.20152        -4.24357
   C        4.24219         4.38292        -5.55327
   O        5.16956         5.08285        -5.91335
   C        3.75878         3.09871        -5.99524
   C        2.61584         2.77856        -5.22234
   C        2.10141         1.51397        -5.69694
   O        1.17629         0.82444        -5.32549
   N        2.96141         1.16312        -6.76399
   C        2.81303        -0.12443        -7.40287
   C        3.97201        -1.06198        -7.08422
   C        3.94722         2.09931        -6.94347
   C        4.98289         2.16037        -7.92323
   C        5.00974         1.57034        -9.13287
   C        6.06572         1.71955       -10.11092
   C        6.36543         0.60319       -10.90475
   C        5.69142        -0.71238       -10.98579
   O        4.72333        -1.11369       -10.39961
   O        6.35312        -1.46719       -11.89340
   C        7.45627        -0.77023       -12.44603
   C        7.43788         0.57037       -11.78766
   C        8.27833         1.65933       -11.91840
   C        7.97359         2.78800       -11.18183
   C        6.86921         2.86932       -10.31788
   C        6.60853         4.18068        -9.76177
   C        5.41186         4.70050        -9.40987
   C        5.30622         6.02109        -8.90490
   C        4.18100         6.54987        -8.34774
   C        4.00351         7.91768        -7.89212
   C        4.94951         8.90799        -7.86374
   C        4.71068        10.21830        -7.39667
   N        4.59090        11.30038        -7.03237
   C        6.28838         8.78623        -8.29134
   N        7.38602         8.78833        -8.62931
   C        2.61454         8.06672        -7.46861
   C        1.97066         6.79958        -7.56208
   C        2.92236         5.80514        -8.09062
   O        2.70702         4.62208        -8.26243
   C        0.65423         6.63468        -7.23865
   C       -0.10867         7.76381        -6.86153
   C        0.52565         9.03679        -6.77806
   C        1.90419         9.16559        -7.06219
   C       -0.25530        10.16678        -6.46104
   C       -1.60710        10.05495        -6.28343
   C       -2.23193         8.80154        -6.37098
   C       -1.49588         7.67663        -6.62924
   H       -0.42833        12.56123        -3.23056
   H       -4.82429        10.21204        -3.43360
   H       -5.94253        12.34126        -3.74401
   H       -5.85690        14.79232        -3.96634
   H       -3.69754        15.97314        -3.87283
   H       -1.60567        14.71213        -3.55554
   H        0.63730         7.59374        -1.94589
   H       -4.72458         4.88512         0.18455
   H       -3.68326         5.04916         1.61798
   H       -2.41007         2.85434        -0.12436
   H       -0.41973         2.81919        -1.56573
   H        1.18683         5.88024        -3.01513
   H        0.79515         2.86559        -3.32368
   H        4.76808         5.96241        -3.64299
   H        3.30630         5.70050        -2.66953
   H        3.69699         7.48110        -5.12448
   H        3.21605         7.99874        -3.51044
   H        2.08159         7.10843        -4.53305
   H        2.70024        -0.00798        -8.48241
   H        1.88158        -0.53795        -7.00401
   H        4.91580        -0.64252        -7.42295
   H        3.81874        -2.00771        -7.59462
   H        4.03013        -1.24127        -6.01289
   H        5.77149         2.84856        -7.64622
   H        4.24855         0.85956        -9.41474
   H        7.32742        -0.70947       -13.53254
   H        8.37231        -1.33344       -12.23545
   H        9.13172         1.63666       -12.57725
   H        8.59494         3.66451       -11.29395
   H        7.47669         4.82778        -9.69792
   H        4.50662         4.11885        -9.47897
   H        6.19767         6.63167        -8.96161
   H        0.18883         5.66217        -7.30471
   H        2.35534        10.14109        -6.97887
   H        0.23220        11.12751        -6.38803
   H       -2.20524        10.93155        -6.08263
   H       -3.30286         8.73566        -6.24365
   H       -1.97103         6.70796        -6.68721
*
