# ORCA input file
# SCF done       -213.931774281157          0.000995653930
! CAM-B3LYP def2-SVP def2/J RIJCOSX Grid4 TightSCF
%maxcore 5000
%tddft
    Mode sTDDFT
    Ethresh 5.0
    maxcore 5000
end

%pal
  nprocs 6
  end
* xyz 0 1
   C        1.74023         6.93360         1.75861
   C        0.61898         7.68955         1.54425
   C        0.62630         9.09823         1.56738
   N        0.63855        10.24572         1.53147
   C       -0.64985         7.09280         1.36923
   N       -1.67779         6.59091         1.28683
   C        3.00838         7.41504         2.29790
   C        3.70283         6.30896         2.87261
   C        4.90892         6.46384         3.49390
   C        5.49292         7.74891         3.55536
   C        4.81180         8.85471         2.96880
   C        3.55765         8.66773         2.34281
   C        5.41150        10.12914         3.02678
   C        6.62459        10.30530         3.63471
   C        7.29408         9.21623         4.21256
   C        6.73984         7.96564         4.17468
   C        2.93718         5.07243         2.63892
   O        3.18268         3.95265         3.01841
   C        1.81671         5.48428         1.73598
   C        1.27508         4.54887         0.91458
   C        0.57921         4.73324        -0.30850
   O        0.29953         5.97542        -0.78402
   C       -0.22430         5.86636        -2.01363
   C       -0.27126         4.50687        -2.35663
   C        0.23071         3.78876        -1.25597
   N       -0.73686         3.95251        -3.56849
   O       -1.10302         4.72291        -4.43811
   O       -0.72653         2.74333        -3.67064
   C       -0.61489         7.03850        -2.71252
   C       -0.84856         8.18044        -2.01276
   C       -1.13772         9.49849        -2.43225
   N       -0.95303        10.10495        -3.65035
   C       -0.55353         9.48571        -4.89023
   C       -1.74147         8.86051        -5.61768
   C       -1.21540        11.49426        -3.58731
   O       -1.09301        12.24005        -4.53341
   C       -1.61051        11.72034        -2.21148
   C       -1.56705        10.48294        -1.54324
   C       -2.00741        10.69018        -0.18065
   O       -2.15687         9.92631         0.74578
   N       -2.29061        12.07525        -0.11400
   C       -2.61185        12.65996         1.16790
   C       -1.43548        13.44674         1.73674
   C       -2.03438        12.70055        -1.30870
   C       -2.12225        14.07815        -1.64035
   C       -2.80003        15.05782        -0.99270
   C       -2.77806        16.41755        -1.39830
   S       -1.56326        17.02915        -2.47204
   C       -2.20617        18.63900        -2.36717
   C       -3.32128        18.68219        -1.51856
   C       -3.63719        17.43018        -0.95854
   C       -4.76917        17.23350        -0.04716
   O       -4.99807        16.18203         0.52704
   C       -5.64702        18.41388         0.11050
   C       -6.83133        18.26767         0.82840
   C       -7.69295        19.33650         0.99352
   C       -7.37581        20.57232         0.44918
   C       -6.19634        20.73445        -0.25429
   C       -5.32544        19.66331        -0.43544
   C       -4.07011        19.89973        -1.18145
   O       -3.69709        21.02389        -1.46685
   C       -1.72016        19.75520        -3.08604
   C       -0.51638        19.92364        -3.70139
   C       -0.08895        21.14446        -4.36830
   C       -0.91039        22.10439        -4.89169
   C       -0.44104        23.26821        -5.53676
   N       -0.10880        24.23113        -6.06533
   C       -2.32049        22.02017        -4.92478
   N       -3.46245        21.99528        -5.03329
   C        1.36488        21.10686        -4.45784
   C        1.81185        19.83152        -4.00376
   C        0.65322        19.02534        -3.59354
   O        0.66389        17.86721        -3.22405
   C        3.13550        19.49684        -3.97958
   C        4.09184        20.44505        -4.40551
   C        3.65410        21.72571        -4.85264
   C        2.27564        22.04040        -4.87543
   C        4.61937        22.66545        -5.26752
   C        5.95256        22.35749        -5.24273
   C        6.38215        21.09644        -4.80302
   C        5.47155        20.16023        -4.39419
   H        5.41471         5.61470         3.92877
   H        3.06706         9.52004         1.89942
   H        4.89093        10.96520         2.58332
   H        7.07511        11.28574         3.67450
   H        8.25087         9.37322         4.68749
   H        7.25053         7.12326         4.61762
   H        1.52256         3.51894         1.14354
   H        0.32631         2.72493        -1.18511
   H       -0.75799         6.93727        -3.77595
   H       -0.84621         8.09907        -0.93247
   H        0.22130         8.74233        -4.68730
   H       -0.13006        10.28387        -5.50713
   H       -2.24259         8.12374        -4.99427
   H       -1.40142         8.37302        -6.52687
   H       -2.45868         9.63319        -5.88336
   H       -2.83202        11.81115         1.82248
   H       -3.50913        13.27728         1.09258
   H       -0.57326        12.79172         1.83672
   H       -1.69665        13.83453         2.71723
   H       -1.17178        14.28071         1.09038
   H       -1.60085        14.32694        -2.55825
   H       -3.43735        14.84628        -0.14781
   H       -7.05687        17.29835         1.24778
   H       -8.61091        19.20761         1.54695
   H       -8.04661        21.40862         0.57566
   H       -5.92631        21.68880        -0.68142
   H       -2.39401        20.60536        -3.06550
   H        3.44898        18.52266        -3.63478
   H        1.97437        23.01916        -5.21403
   H        4.28423        23.63459        -5.60649
   H        6.68397        23.08463        -5.56191
   H        7.43791        20.87073        -4.78954
   H        5.79594        19.18747        -4.05460
*
