# ORCA input file
# SCF done       -224.108011661960          0.000290783678
! CAM-B3LYP def2-SVP def2/J RIJCOSX Grid4 TightSCF
%maxcore 5000
%tddft
    Mode sTDDFT
    Ethresh 5.0
    maxcore 5000
end

%pal
  nprocs 6
  end
* xyz 0 2
   C       -9.63229       -13.28345        -3.27094
   C       -9.01526       -14.24876        -4.01680
   F       -9.72304       -14.98655        -4.88082
   C       -7.63040       -14.47845        -3.88894
   F       -7.05127       -15.42994        -4.63200
   C       -6.88189       -13.73668        -3.01830
   C       -7.48813       -12.73183        -2.23851
   C       -8.88893       -12.50102        -2.36459
   C       -9.52009       -11.49949        -1.59106
   C       -8.77089       -10.74671        -0.72661
   C       -7.37235       -10.97811        -0.61485
   C       -6.73612       -11.94394        -1.33950
   C       -6.78613       -10.02027         0.33555
   O       -5.63652        -9.98119         0.71422
   C       -7.92894        -9.18767         0.81436
   C       -9.13134        -9.64628         0.16211
   C      -10.37464        -9.07423         0.27054
   C      -11.51215        -9.52013        -0.43307
   N      -12.47077        -9.84227        -0.97600
   C      -10.66737        -7.95461         1.07644
   N      -10.96379        -7.03709         1.69951
   C       -7.82697        -8.27612         1.83761
   C       -6.62885        -7.63164         2.18969
   S       -6.28164        -7.07185         3.79866
   C       -4.66834        -6.45137         3.32692
   S       -3.62902        -5.75241         4.41965
   C       -4.50491        -6.65947         1.97244
   C       -5.57064        -7.28279         1.32630
   C       -5.45484        -7.38846        -0.08627
   C       -4.27199        -6.97675        -0.61185
   S       -3.24904        -6.29780         0.74645
   O       -3.10552        -4.87929         0.57871
   O       -2.06745        -7.07454         0.96151
   C       -3.96880        -7.09237        -1.98919
   N       -2.86809        -6.62891        -2.64862
   C       -1.71668        -5.92764        -2.12321
   C       -0.58473        -6.89343        -1.78375
   C       -2.91245        -6.93987        -4.03013
   O       -2.05673        -6.62065        -4.82274
   C       -4.15542        -7.66053        -4.19127
   C       -4.78862        -7.73956        -2.93390
   C       -6.02952        -8.45157        -3.12940
   O       -6.92533        -8.76847        -2.36248
   N       -6.06925        -8.74867        -4.50474
   C       -7.14631        -9.55686        -5.02721
   C       -6.67553       -10.95390        -5.41960
   C       -4.95510        -8.26989        -5.15655
   C       -4.60424        -8.27423        -6.53362
   C       -5.34643        -8.60860        -7.61340
   C       -4.90423        -8.49472        -8.98083
   C       -5.85048        -8.62413       -10.00372
   C       -5.49023        -8.49508       -11.32997
   N       -6.57110        -8.47671       -12.28910
   O       -7.46654        -9.27610       -12.12964
   O       -6.53331        -7.63369       -13.15814
   C       -4.15433        -8.28939       -11.71543
   C       -3.22011        -8.14037       -10.68076
   C       -3.57735        -8.23423        -9.35631
   C       -3.68916        -8.30508       -13.08125
   C       -4.21835        -9.04720       -14.07616
   C       -3.68005        -9.06156       -15.39119
   C       -4.02437        -9.90536       -16.39713
   C       -3.67723        -9.56168       -17.80802
   O       -2.86562        -8.74552       -18.17196
   C       -4.57576       -10.39033       -18.63517
   C       -4.75870       -10.36564       -19.98808
   C       -5.70833       -11.23532       -20.56872
   C       -6.45839       -12.11190       -19.73111
   C       -7.41064       -12.97083       -20.31614
   C       -7.60634       -12.96255       -21.66863
   C       -6.86271       -12.09635       -22.49627
   C       -5.93342       -11.25029       -21.95917
   F       -7.07636       -12.10966       -23.81779
   F       -8.50938       -13.77994       -22.22310
   C       -6.24379       -12.11961       -18.33414
   C       -5.30929       -11.27641       -17.79402
   C       -4.85878       -11.09171       -16.41683
   C       -5.02251       -11.99462       -15.40112
   C       -4.36110       -11.92329       -14.15593
   N       -3.81849       -11.93308       -13.14458
   C       -5.79480       -13.17094       -15.52038
   N       -6.41689       -14.13365       -15.56579
   H      -10.69387       -13.12434        -3.37894
   H       -5.82387       -13.92857        -2.92875
   H      -10.58239       -11.35478        -1.70443
   H       -5.67256       -12.09634        -1.23448
   H       -8.70012        -8.04047         2.43336
   H       -6.26444        -7.77046        -0.68931
   H       -2.00498        -5.34397        -1.25075
   H       -1.38815        -5.25115        -2.91848
   H       -0.86850        -7.54062        -0.95838
   H        0.29139        -6.32506        -1.48672
   H       -0.33236        -7.49634        -2.65330
   H       -7.62347        -9.04565        -5.86704
   H       -7.87603        -9.63136        -4.21466
   H       -5.92669       -10.91342        -6.20660
   H       -7.52057       -11.53951        -5.77083
   H       -6.24339       -11.45387        -4.55635
   H       -3.60674        -7.88203        -6.68323
   H       -6.36424        -8.94909        -7.49885
   H       -6.89127        -8.79449        -9.76712
   H       -2.18622        -7.97390       -10.94202
   H       -2.81635        -8.12168        -8.60098
   H       -2.77757        -7.75381       -13.27218
   H       -5.08372        -9.66741       -13.89392
   H       -2.97957        -8.27586       -15.65229
   H       -4.18783        -9.68987       -20.60648
   H       -7.98611       -13.64188       -19.69780
   H       -5.37322       -10.59320       -22.60576
   H       -6.83287       -12.78488       -17.72328
*
