# ORCA input file
# SCF done       -239.301343617341          0.000873552355
! CAM-B3LYP def2-SVP def2/J RIJCOSX Grid4 TightSCF
%maxcore 5000
%tddft
    Mode sTDDFT
    Ethresh 5.0
    maxcore 5000
end

%pal
  nprocs 6
  end
* xyz 0 1
   C       -2.14049        -0.68952         4.93099
   N       -2.37568         0.42858         4.20267
   C       -1.52333         0.96133         3.16840
   C       -1.64861         0.16145         1.87471
   C       -3.62422         1.00430         4.53399
   O       -4.04653         2.02238         4.01661
   C       -4.15534         0.13003         5.55260
   C       -3.20246        -0.90586         5.77178
   C       -3.72771        -1.79108         6.79827
   O       -3.28739        -2.79441         7.30637
   N       -4.97769        -1.22710         7.12492
   C       -5.81048        -1.80659         8.15429
   C       -5.75932        -1.00940         9.45437
   C       -5.24495        -0.09178         6.40185
   C       -6.44198         0.64847         6.53464
   C       -6.66756         1.77538         5.79798
   C       -7.78947         2.63335         5.82538
   C       -8.76167         2.92879         6.78226
   N       -9.02843         2.35486         8.03799
   O       -8.53370         1.27480         8.32715
   O       -9.76435         2.97290         8.78510
   C       -9.50054         4.08984         6.36225
   C       -8.99721         4.54105         5.18575
   C       -7.95219         3.65393         4.76715
   C       -7.34492         3.64339         3.52796
   C       -6.93186         2.48692         2.78992
   C       -6.73381         2.84468         1.49253
   C       -6.92605         4.26146         1.36389
   N       -6.72736         4.95354         0.15920
   O       -6.90497         6.16308         0.14129
   O       -6.39419         4.30067        -0.81500
   C       -7.26123         4.79098         2.60535
   C       -7.32221         6.15402         2.97069
   C       -7.05421         6.60946         4.22618
   C       -7.14090         7.96785         4.61224
   S       -7.59814         9.20834         3.48855
   C       -7.44784        10.44672         4.70748
   C       -7.12076         9.90103         5.93612
   C       -6.91821         8.50940         5.87582
   C       -6.43255         7.67994         7.02953
   N       -7.42517         6.60382         7.31621
   O       -8.57296         6.94072         7.45165
   O       -7.00650         5.47489         7.40099
   C       -6.23804         8.46766         8.33670
   C       -5.91207         9.93106         8.07610
   C       -7.06930        10.54019         7.29463
   N       -7.03003        12.02347         7.30878
   O       -7.84639        12.58549         6.61245
   O       -6.27341        12.56704         8.06780
   C       -7.55870        11.80089         4.23988
   C       -6.57630        12.77460         4.24488
   N       -5.31328        12.68169         4.83956
   O       -5.11801        11.74620         5.61110
   O       -4.47580        13.51158         4.54779
   C       -7.00380        13.88878         3.43692
   C       -8.21349        13.59657         2.90171
   C       -8.63024        12.30129         3.36475
   C       -9.83964        11.65334         3.20050
   C      -10.36967        10.69753         4.12201
   C      -11.62303        10.34828         3.72844
   C      -11.92492        11.00123         2.49048
   N      -13.20771        10.86555         1.93173
   O      -13.92226         9.99128         2.39248
   O      -13.56850        11.62926         1.04690
   C      -10.83876        11.80719         2.11684
   C      -10.56781        12.48924         0.91627
   C      -11.22166        12.30057        -0.27426
   C      -10.99166        13.08068        -1.42082
   N      -11.62168        12.85504        -2.62064
   C      -12.60390        11.83144        -2.90003
   C      -13.97743        12.18358        -2.33461
   C      -11.26130        13.79372        -3.59813
   O      -11.69193        13.79068        -4.73129
   C      -10.31747        14.66758        -2.92358
   C      -10.17057        14.20685        -1.59782
   C       -9.24800        15.09237        -0.92460
   O       -8.81453        15.11370         0.20955
   N       -8.88350        16.03469        -1.90795
   C       -7.99897        17.13064        -1.59007
   C       -8.77103        18.41965        -1.32003
   C       -9.51621        15.79890        -3.09703
   C       -9.32879        16.59973        -4.26893
   C       -9.96975        16.36418        -5.41832
   H       -1.23364        -1.25267         4.81035
   H       -0.48825         0.95745         3.52129
   H       -1.84341         1.99311         3.00154
   H       -1.36198        -0.87569         2.03409
   H       -1.00237         0.58929         1.11388
   H       -2.67419         0.18900         1.51497
   H       -5.41626        -2.81293         8.32154
   H       -6.83932        -1.88347         7.79331
   H       -4.73013        -0.90483         9.78972
   H       -6.32263        -1.53379        10.22068
   H       -6.19311        -0.02123         9.32656
   H       -7.18414         0.29331         7.23045
   H       -5.90206         2.06980         5.09144
   H      -10.30952         4.50943         6.92978
   H       -9.37854         5.35611         4.60216
   H       -6.92424         1.48676         3.17553
   H       -6.47717         2.20597         0.66874
   H       -7.51383         6.86419         2.17578
   H       -6.72922         5.89967         4.97345
   H       -5.50303         7.17336         6.74684
   H       -5.44542         8.00227         8.92229
   H       -7.16251         8.41750         8.91933
   H       -4.99582        10.04514         7.49610
   H       -5.78481        10.45528         9.02301
   H       -8.01956        10.30022         7.79969
   H       -6.42777        14.78561         3.31617
   H       -8.79634        14.26875         2.30654
   H       -9.89874        10.41302         5.04174
   H      -12.31512         9.70723         4.24126
   H       -9.74671        13.18912         0.92927
   H      -11.96635        11.52757        -0.36154
   H      -12.25292        10.87356        -2.50764
   H      -12.66087        11.76447        -3.99024
   H      -13.96094        12.24283        -1.24904
   H      -14.69347        11.42121        -2.62811
   H      -14.30862        13.13981        -2.73227
   H       -7.27967        17.26782        -2.40145
   H       -7.45849        16.83153        -0.68775
   H       -9.35125        18.71832        -2.19028
   H       -8.07679        19.21716        -1.07116
   H       -9.45052        18.27790        -0.48324
   H       -8.63041        17.42151        -4.19234
   H      -10.67156        15.55266        -5.51985
   H       -9.80299        16.98285        -6.28308
*
