# ORCA input file
# SCF done       -231.871858065675          0.000271819869
! CAM-B3LYP def2-SVP def2/J RIJCOSX Grid4 TightSCF
%maxcore 5000
%tddft
    Mode sTDDFT
    Ethresh 5.0
    maxcore 5000
end

%pal
  nprocs 6
  end
* xyz 0 1
   C        3.45112         6.46176         6.31691
   N        2.57035         7.23350         5.63608
   C        2.82473         8.55431         5.11565
   C        2.78717         9.60698         6.22004
   C        1.30233         6.61281         5.55137
   O        0.34820         7.12133         4.99176
   C        1.48015         5.35424         6.23605
   C        2.82597         5.30144         6.69845
   C        3.01635         4.03543         7.38771
   O        3.97194         3.55101         7.94498
   N        1.75914         3.40572         7.29194
   C        1.54493         2.08097         7.82774
   C        1.64072         1.01024         6.74447
   C        0.84295         4.16446         6.60780
   C       -0.48123         3.74123         6.35510
   C       -1.34841         4.51631         5.63858
   C       -2.69127         4.25047         5.29300
   C       -3.67969         3.40908         5.81776
   N       -3.60904         2.36825         6.75919
   O       -4.66181         1.98020         7.23470
   O       -2.52346         1.88382         7.04586
   C       -4.94986         3.77595         5.26059
   C       -4.78495         4.82595         4.41234
   C       -3.39167         5.14368         4.34895
   C       -2.77857         5.98156         3.43349
   C       -1.49304         5.77803         2.84823
   C       -1.35157         6.61755         1.78208
   C       -2.51265         7.44264         1.68300
   N       -2.63665         8.45828         0.72362
   O       -3.65066         9.14263         0.71145
   O       -1.71537         8.59994        -0.06315
   C       -3.40713         7.10236         2.70424
   C       -4.57700         7.79731         3.04257
   C       -5.19892         7.78764         4.26446
   C       -6.39486         8.46977         4.52466
   S       -7.24202         9.33967         3.29163
   C       -8.48417         9.83909         4.36914
   C       -8.27943         9.33169         5.66081
   C       -7.09485         8.54417         5.75111
   C       -6.74876         7.94255         6.96858
   C       -7.57259         8.12326         8.05159
   C       -7.24161         7.50391         9.38062
   F       -6.08849         6.82276         9.37314
   F       -7.13640         8.42376        10.35507
   F       -8.19293         6.64257         9.78462
   C       -8.76266         8.87369         7.96136
   C       -9.11975         9.46495         6.78293
   C       -9.52955        10.73222         3.94237
   C      -10.30970        10.54933         2.78245
   C      -10.22860         9.34175         1.93504
   O       -9.56469         8.36239         2.11154
   S      -11.36394         9.50307         0.56360
   C      -11.99512        11.07609         1.14806
   O      -12.85643        11.67212         0.56989
   C      -11.29427        11.45476         2.39082
   C      -11.62182        12.61072         3.13829
   C      -10.80204        12.81273         4.26696
   C       -9.81068        11.91657         4.64414
   C       -9.04863        12.53518         5.75840
   O       -8.09764        12.13381         6.35394
   O       -9.61098        13.76104         5.99526
   C      -10.64645        14.01645         5.12494
   O      -11.20676        15.06631         5.10044
   C      -12.68053        13.49373         2.74713
   C      -13.48159        14.13330         3.63082
   C      -14.57628        15.00095         3.37101
   N      -15.00552        15.57002         2.19434
   C      -14.39155        15.51863         0.88795
   C      -13.07890        16.29612         0.84452
   C      -16.14072        16.38418         2.39456
   O      -16.68623        16.99702         1.50000
   C      -16.42549        16.27585         3.80821
   C      -15.44561        15.42355         4.37126
   C      -15.72250        15.28537         5.78436
   O      -15.18826        14.64747         6.66393
   N      -16.86831        16.09045         5.98463
   C      -17.42367        16.27325         7.30396
   C      -16.99583        17.60406         7.91791
   C      -17.28981        16.67995         4.82172
   C      -18.44071        17.53131         4.73513
   C      -18.82617        18.10812         3.59387
   H        4.46397         6.78146         6.47820
   H        2.04113         8.75648         4.38071
   H        3.79747         8.55889         4.61624
   H        1.81064         9.61370         6.69788
   H        2.97421        10.58986         5.79751
   H        3.54344         9.40065         6.97418
   H        0.57263         2.03968         8.32396
   H        2.33243         1.92438         8.56988
   H        0.86752         1.14703         5.99238
   H        1.51746         0.02865         7.19228
   H        2.61380         1.05308         6.26074
   H       -0.78864         2.77611         6.72440
   H       -0.97803         5.46587         5.27452
   H       -5.86325         3.26248         5.49463
   H       -5.54259         5.26644         3.79418
   H       -0.81173         4.99688         3.12191
   H       -0.52138         6.67561         1.10383
   H       -4.96899         8.45603         2.27574
   H       -4.74790         7.25830         5.09170
   H       -5.85467         7.34554         7.05331
   H       -9.38621         8.96914         8.83659
   H      -10.03925        10.02328         6.70613
   H      -12.86921        13.54850         1.68816
   H      -13.35255        13.95150         4.68965
   H      -15.11353        15.98405         0.20970
   H      -14.25526        14.47964         0.57811
   H      -13.26461        17.34736         1.05088
   H      -12.63524        16.20988        -0.14337
   H      -12.37278        15.92165         1.58193
   H      -17.03705        15.44898         7.90990
   H      -18.51345        16.19544         7.25921
   H      -15.91220        17.64538         7.99483
   H      -17.41871        17.70239         8.91377
   H      -17.33144        18.44119         7.30972
   H      -19.00215        17.69083         5.64514
   H      -18.28157        17.96333         2.67539
   H      -19.69755        18.73881         3.55622
*
