# ORCA input file
# SCF done       -215.573979461160          0.000488203644
! CAM-B3LYP def2-SVP def2/J RIJCOSX Grid4 TightSCF
%maxcore 5000
%tddft
    Mode sTDDFT
    Ethresh 5.0
    maxcore 5000
end

%pal
  nprocs 6
  end
* xyz 0 1
   C      -13.04231         1.43389         0.77286
   N      -11.85760         1.67761         1.37981
   C      -10.92041         0.68455         1.84503
   C      -10.13220         0.07767         0.68762
   C      -11.58547         3.06548         1.43598
   O      -10.57905         3.52816         1.93780
   C      -12.73601         3.67454         0.80905
   C      -13.61643         2.62893         0.41448
   C      -14.78284         3.23333        -0.21031
   O      -15.77864         2.75796        -0.69933
   N      -14.51974         4.61736        -0.14891
   C      -15.47672         5.58273        -0.63969
   C      -16.30937         6.17843         0.49207
   C      -13.31937         4.89632         0.45335
   C      -12.82900         6.20860         0.63633
   C      -11.63058         6.44700         1.24829
   C      -10.99299         7.68723         1.46502
   C      -11.09090         8.93484         0.84447
   N      -12.02141         9.44616        -0.07836
   O      -13.11099         8.90559        -0.20123
   O      -11.69083        10.43830        -0.70273
   C       -9.96958         9.74379         1.23718
   C       -9.17995         9.03971         2.08855
   C       -9.78493         7.76384         2.32151
   C       -9.42058         6.85592         3.29105
   C      -10.27492         5.92542         3.97242
   C       -9.58723         5.38576         5.00826
   C       -8.24892         5.92230         5.02034
   N       -7.29690         5.43192         5.93540
   O       -6.25441         6.04437         6.10057
   O       -7.58067         4.40582         6.52703
   C       -8.10555         6.81910         3.96977
   C       -6.97014         7.44904         3.39516
   C       -5.86594         7.91020         4.03924
   C       -4.76802         8.52662         3.38904
   S       -3.50379         9.18209         4.40097
   C       -2.55819         9.73154         3.04253
   C       -3.20169         9.39426         1.86183
   C       -4.44357         8.73642         2.05299
   C       -5.07839         8.46920         0.75890
   O       -6.15995         7.97772         0.53738
   C       -4.11187         8.96536        -0.29983
   C       -2.91854         9.55359         0.42993
   O       -1.94448        10.03315        -0.09318
   C       -1.34950        10.44473         3.26208
   S       -0.89845        10.92268         4.87789
   C        0.53099        11.71475         4.30810
   C        0.64605        11.58496         2.90977
   C       -0.42675        10.87915         2.33712
   C        1.77813        12.11960         2.17377
   O        2.80455        12.54743         2.64092
   C        1.61692        12.10057         0.62374
   F        0.48622        12.70022         0.22587
   F        2.62903        12.72537         0.02889
   F        1.59157        10.84455         0.14703
   C        1.36723        12.46232         5.16430
   C        1.22182        12.50588         6.51458
   C        1.97788        13.32185         7.39837
   C        2.46174        14.60851         7.23352
   N        2.28951        15.50963         6.15505
   O        2.84512        16.58715         6.25194
   O        1.57653        15.18763         5.22241
   C        3.05596        15.06021         8.47110
   C        2.90951        14.09691         9.40922
   C        2.27216        12.95510         8.80333
   C        2.11767        11.71699         9.36817
   C        1.99156        10.45626         8.67784
   C        2.09713         9.46047         9.58264
   C        2.24165        10.03837        10.90838
   N        2.24070         9.20213        12.04855
   O        2.68104         9.62683        13.09935
   O        1.78803         8.08270        11.89542
   C        2.23903        11.40965        10.81533
   C        2.11993        12.42786        11.82824
   C        2.70267        12.44605        13.02755
   H      -13.40595         0.43157         0.64076
   H      -11.46516        -0.09362         2.38634
   H      -10.24087         1.19455         2.53291
   H      -10.79934        -0.41185        -0.01857
   H       -9.42726        -0.65570         1.06796
   H       -9.57844         0.85335         0.16440
   H      -16.12846         5.03874        -1.32860
   H      -14.95465         6.37008        -1.18836
   H      -16.84549         5.39173         1.01777
   H      -17.03175         6.87767         0.08161
   H      -15.67891         6.70908         1.20153
   H      -13.43483         7.02972         0.28739
   H      -11.07546         5.59106         1.60920
   H       -9.82689        10.75105         0.89314
   H       -8.31600         9.41399         2.60078
   H      -11.31512         5.77637         3.76296
   H       -9.94015         4.67806         5.73416
   H       -7.03063         7.58450         2.32220
   H       -5.79235         7.84593         5.11479
   H       -4.58445         9.71142        -0.94276
   H       -3.80077         8.14900        -0.95589
   H       -0.54466        10.67360         1.28744
   H        2.15939        13.01188         4.67771
   H        0.48290        11.86304         6.97968
   H        3.51895        16.02267         8.58007
   H        3.29462        14.11900        10.40917
   H        1.95337        10.34299         7.61283
   H        2.08849         8.40146         9.40669
   H        1.48440        13.25666        11.53689
   H        3.37663        11.67642        13.35642
   H        2.51833        13.25775        13.71091
*
