# ORCA input file
# SCF done       -230.888479715572          0.000838820064
! CAM-B3LYP def2-SVP def2/J RIJCOSX Grid4 TightSCF
%maxcore 5000
%tddft
    Mode sTDDFT
    Ethresh 5.0
    maxcore 5000
end

%pal
  nprocs 6
  end
* xyz 0 1
   C       -4.08205        -0.50384        -0.98499
   N       -3.81172         0.29483         0.07411
   C       -2.51235         0.52354         0.65691
   C       -1.65993         1.44083        -0.21531
   C       -4.97642         0.95933         0.52676
   O       -4.97524         1.73742         1.46352
   C       -6.01814         0.48007        -0.34917
   C       -5.42190        -0.42134        -1.27446
   C       -6.46395        -0.91081        -2.16299
   O       -6.43913        -1.67504        -3.09774
   N       -7.62962        -0.26475        -1.70592
   C       -8.91461        -0.52637        -2.31299
   C       -9.72400        -1.54014        -1.50917
   C       -7.39050         0.55309        -0.63016
   C       -8.39907         1.29126         0.02328
   C       -8.11555         2.06443         1.11620
   C       -8.98608         2.85875         1.88869
   C      -10.24570         3.43761         1.65071
   N      -11.15856         3.26165         0.59985
   O      -12.03124         4.10466         0.47672
   O      -11.06255         2.28507        -0.13097
   C      -10.52336         4.38197         2.68440
   C       -9.47168         4.41853         3.55671
   C       -8.49895         3.47339         3.13267
   C       -7.37173         3.06089         3.84239
   C       -6.88236         1.73562         3.89697
   C       -5.91800         1.64717         4.87535
   C       -5.71697         2.92524         5.44094
   N       -4.76843         3.16608         6.44309
   O       -4.07743         2.22437         6.79727
   O       -4.67916         4.28814         6.92617
   C       -6.57669         3.85232         4.80105
   C       -6.49643         5.23203         4.94306
   C       -7.07197         6.19897         4.13806
   C       -6.96831         7.55893         4.40455
   S       -7.71303         8.73229         3.32767
   C       -7.13613        10.09544         4.24605
   C       -6.41455         9.65175         5.36380
   C       -6.33509         8.24323         5.45578
   S       -5.47240         7.73507         6.85608
   C       -5.25392         9.39776         7.32881
   C       -4.53387         9.70334         8.57477
   O       -4.42887        10.80868         9.04146
   O       -4.02180         8.58818         9.09654
   C       -3.29988         8.70762        10.32335
   C       -4.24073         8.70698        11.51897
   C       -5.80376        10.29649         6.46325
   C       -7.36213        11.42813         3.84190
   C       -6.43365        12.47849         3.82571
   N       -5.05253        12.40798         4.06677
   O       -4.54035        11.30741         4.21734
   O       -4.43262        13.45751         4.07724
   C       -7.06173        13.64363         3.29634
   C       -8.34835        13.33475         2.96052
   C       -8.60052        11.96804         3.29145
   C       -9.84788        11.34727         3.33136
   C      -10.27830        10.38778         4.28344
   C      -11.63599        10.22951         4.17808
   C      -12.11005        11.04250         3.11309
   N      -13.44750        11.04235         2.68069
   O      -14.26364        10.49187         3.39980
   O      -13.72011        11.58428         1.62208
   C      -11.03377        11.74056         2.55093
   C      -11.07520        12.57696         1.42498
   C      -10.02489        12.79170         0.56983
   C      -10.08892        13.70663        -0.49415
   N       -9.14874        13.80380        -1.49283
   C       -8.00505        12.94250        -1.67560
   C       -8.40578        11.57737        -2.22798
   C       -9.45977        14.81083        -2.42078
   O       -8.77568        15.06711        -3.38858
   C      -10.68895        15.39467        -1.91581
   C      -11.04531        14.70285        -0.73935
   C      -12.23767        15.32005        -0.20005
   O      -12.88547        15.11510         0.80126
   N      -12.54774        16.33964        -1.13292
   C      -13.67511        17.21445        -0.91622
   C      -13.24777        18.54327        -0.29760
   C      -11.63304        16.40182        -2.14372
   C      -11.69697        17.34729        -3.21760
   C      -10.77869        17.40697        -4.18712
   H       -3.31176        -1.08407        -1.45820
   H       -2.01170        -0.43779         0.80240
   H       -2.68693         0.98962         1.63026
   H       -1.49288         0.99676        -1.19407
   H       -0.69811         1.60924         0.26014
   H       -2.15525         2.39960        -0.34715
   H       -8.70290        -0.92981        -3.30693
   H       -9.46720         0.41018        -2.41710
   H       -9.17348        -2.47389        -1.42124
   H      -10.66460        -1.73674        -2.01499
   H       -9.93928        -1.16307        -0.51239
   H       -9.40956         1.21836        -0.34548
   H       -7.08800         2.07806         1.45592
   H      -11.43643         4.94401         2.74074
   H       -9.42790         4.97416         4.47372
   H       -7.29041         0.90622         3.35295
   H       -5.39441         0.76302         5.18713
   H       -5.85871         5.57000         5.75041
   H       -7.60622         5.91421         3.24315
   H       -2.71505         9.63284        10.29893
   H       -2.63513         7.84228        10.34205
   H       -4.88760         9.58055        11.48557
   H       -3.66048         8.73498        12.43644
   H       -4.85421         7.80924        11.51336
   H       -5.76776        11.35690         6.62899
   H       -6.56348        14.58766         3.18522
   H       -9.08970        14.02030         2.60041
   H       -9.65774         9.95570         5.04454
   H      -12.26771         9.60501         4.78109
   H      -12.03815        13.01867         1.19306
   H       -9.11944        12.21242         0.68658
   H       -7.47237        12.83834        -0.72583
   H       -7.35373        13.45320        -2.39011
   H       -9.09270        11.06948        -1.55461
   H       -7.52170        10.95982        -2.35788
   H       -8.89152        11.69529        -3.19336
   H      -14.33906        16.68663        -0.22602
   H      -14.20241        17.37354        -1.86016
   H      -12.76921        18.36853         0.66278
   H      -14.11985        19.17138        -0.14038
   H      -12.54795        19.06930        -0.94343
   H      -12.53734        18.02742        -3.21972
   H       -9.93097        16.74196        -4.20667
   H      -10.85819        18.12716        -4.98295
*
