# ORCA input file
# SCF done       -176.545644279245          0.000924968765
! CAM-B3LYP def2-SVP def2/J RIJCOSX Grid4 TightSCF
%maxcore 5000
%tddft
    Mode sTDDFT
    Ethresh 5.0
    maxcore 5000
end

%pal
  nprocs 6
  end
* xyz 0 1
   C      -10.66204        -6.94197         7.54918
   C      -11.53184        -7.25339         8.58126
   C      -11.80082        -6.27629         9.54182
   C      -12.68895        -6.57242        10.60574
   N      -13.41228        -6.81238        11.46002
   C      -11.20571        -5.00172         9.47596
   C      -11.49217        -4.03202        10.46671
   N      -11.70533        -3.23155        11.25730
   C      -10.33431        -4.69110         8.43139
   C      -10.08138        -5.66273         7.48648
   C       -9.20997        -5.56390         6.29461
   O       -8.54850        -4.58905         6.00048
   C       -9.35080        -6.85601         5.59029
   C      -10.16608        -7.73004         6.42151
   C      -10.36763        -9.07396         6.25883
   C      -11.16743        -9.85982         7.11802
   N      -11.80825       -10.54555         7.77761
   C       -9.76889        -9.88515         5.26819
   N       -9.29572       -10.62327         4.52781
   C       -8.93148        -7.19831         4.32911
   C       -8.12003        -6.51759         3.40223
   C       -7.36866        -5.35716         3.51612
   C       -6.67277        -5.03436         2.35778
   S       -5.64051        -3.64606         2.13846
   C       -5.79356        -2.80008         3.73740
   C       -6.87920        -5.96385         1.32171
   S       -7.94837        -7.23709         1.81121
   C       -6.34155        -5.97733         0.03037
   C       -6.62751        -6.95941        -0.93339
   C       -5.93768        -6.74302        -2.16539
   N       -6.05284        -7.59147        -3.18453
   C       -6.84205        -8.62974        -3.01194
   C       -6.94990        -9.58796        -4.14291
   O       -6.40993        -9.38955        -5.21203
   C       -7.76111       -10.78293        -3.86966
   C       -8.44237       -10.96525        -2.73312
   C       -8.46464        -9.99538        -1.62167
   O       -9.16882       -10.13662        -0.64699
   C       -7.55856        -8.82862        -1.79096
   N       -7.43961        -8.00140        -0.77118
   C       -5.12066        -5.60542        -2.15685
   S       -5.22373        -4.81084        -0.61709
   C       -4.29010        -5.26405        -3.23802
   C       -3.27694        -4.32615        -3.33288
   C       -2.59481        -4.38599        -4.55032
   S       -1.23468        -3.41342        -5.02991
   C       -1.01730        -2.31391        -3.60190
   C       -3.07872        -5.39575        -5.39542
   S       -4.44104        -6.21298        -4.68071
   C       -2.61963        -5.73843        -6.68001
   C       -2.89730        -6.89846        -7.34785
   C       -2.83645        -6.95572        -8.82977
   O       -2.29928        -6.17281        -9.57626
   C       -3.64941        -8.14497        -9.19398
   C       -4.05187        -8.57179       -10.44176
   C       -4.88373        -9.69155       -10.51751
   C       -5.30400       -10.34761        -9.34352
   C       -4.87572        -9.92078        -8.08540
   C       -4.03742        -8.82331        -8.02166
   C       -3.42080        -8.16412        -6.87457
   C       -3.14169        -8.77491        -5.68180
   C       -2.31611        -8.19648        -4.69403
   N       -1.61808        -7.77263        -3.88711
   C       -3.58747       -10.06322        -5.32478
   N       -3.92076       -11.10172        -4.96781
   C       -6.18488       -11.45298        -9.43677
   N       -6.90068       -12.34479        -9.49539
   C       -5.31939       -10.15987       -11.78008
   N       -5.66052       -10.52507       -12.81060
   H      -12.00939        -8.21631         8.66538
   H       -9.87111        -3.71839         8.36369
   H       -9.29251        -8.14744         3.94999
   H       -7.34812        -4.78242         4.42145
   H       -5.20423        -1.89300         3.64521
   H       -5.38957        -3.42672         4.52630
   H       -6.83315        -2.55222         3.92655
   H       -7.78450       -11.51568        -4.66476
   H       -9.04181       -11.85149        -2.57493
   H       -3.04980        -3.65613        -2.52435
   H       -0.18508        -1.66471        -3.85546
   H       -0.77221        -2.90071        -2.72203
   H       -1.91426        -1.72173        -3.44889
   H       -2.06430        -4.98159        -7.22495
   H       -3.73952        -8.05286       -11.33530
   H       -5.22674       -10.41779        -7.19525
*
