# ORCA input file
# SCF done       -184.762373665284          0.000590735631
! CAM-B3LYP def2-SVP def2/J RIJCOSX Grid4 TightSCF
%maxcore 5000
%tddft
    Mode sTDDFT
    Ethresh 5.0
    maxcore 5000
end

%pal
  nprocs 6
  end
* xyz 0 1
   C       -7.25609        -5.09693         5.46996
   C       -7.70015        -5.52537         4.22229
   C       -6.77018        -5.84574         3.17538
   N       -7.22131        -6.25880         1.97667
   C       -8.50618        -6.36059         1.78878
   C       -9.42129        -6.04439         2.82070
   N       -9.03207        -5.64195         3.99361
   C       -5.37116        -5.74717         3.35002
   C       -4.93512        -5.31077         4.61773
   C       -5.88536        -4.98989         5.66553
   N       -5.26390        -4.59700         6.78759
   S       -3.68479        -4.62941         6.54760
   N       -3.67644        -5.13637         5.02769
   C       -4.48720        -6.08266         2.28898
   C       -3.10001        -6.04680         2.31517
   C       -2.54646        -6.45433         1.10872
   C       -3.52508        -6.79873         0.15018
   S       -5.12408        -6.61929         0.74529
   C       -2.86222        -7.20712        -1.02585
   C       -1.46583        -7.13024        -0.82026
   C       -1.22779        -6.61656         0.52152
   C       -0.02799        -6.29375         1.08228
   C        1.19149        -6.36090         0.37267
   N        2.18552        -6.35412        -0.19765
   C        0.07494        -5.80652         2.40320
   N        0.17458        -5.41137         3.47500
   C       -0.72555        -7.56760        -1.90749
   C       -1.54505        -7.95886        -2.96334
   S       -3.25616        -7.77902        -2.58610
   C       -1.11637        -8.45569        -4.20477
   C        0.19199        -8.82789        -4.55197
   C        0.30904        -9.27698        -5.91303
   N        1.49904        -9.58092        -6.43386
   C        2.53892        -9.52522        -5.63086
   C        3.87527        -9.76636        -6.23237
   O        4.04502        -9.86857        -7.42784
   C        4.98599        -9.82893        -5.26538
   C        4.83932        -9.62770        -3.95173
   C        3.54627        -9.33494        -3.30773
   O        3.42433        -9.23326        -2.10631
   C        2.39799        -9.21611        -4.24206
   N        1.24417        -8.84476        -3.73213
   C       -0.91751        -9.29142        -6.59593
   S       -2.18123        -8.70895        -5.55458
   C       -1.13586        -9.70271        -7.92064
   C       -0.21146       -10.33599        -8.74770
   C       -0.74542       -10.60786        -9.99766
   C       -2.07835       -10.16151       -10.14679
   S       -2.68358        -9.44307        -8.72051
   C       -2.51181       -10.43320       -11.46114
   C       -1.45135       -11.05980       -12.15245
   C       -0.32441       -11.22023       -11.25013
   C        0.85001       -11.86513       -11.50113
   C        1.14749       -12.41561       -12.76661
   N        1.40476       -12.86069       -13.79154
   C        1.82789       -12.08931       -10.50679
   N        2.61241       -12.33338        -9.70785
   C       -1.77630       -11.36396       -13.46771
   C       -3.06864       -10.97199       -13.78779
   S       -3.90459       -10.22204       -12.44039
   C       -3.72002       -11.11780       -15.04246
   C       -5.04538       -10.66001       -15.21938
   C       -5.73958       -10.78010       -16.47125
   N       -7.01102       -10.31981       -16.57877
   C       -7.56005        -9.78071       -15.53132
   C       -6.87717        -9.66175       -14.29771
   N       -5.65587       -10.09378       -14.16211
   C       -5.12769       -11.36160       -17.57799
   C       -3.82585       -11.82145       -17.42853
   C       -3.11291       -11.70633       -16.17066
   N       -1.88047       -12.21250       -16.25800
   S       -1.64473       -12.76730       -17.74260
   N       -3.06997       -12.40828       -18.36866
   H       -7.95837        -4.85917         6.25007
   H       -8.83550        -6.69545         0.81537
   H      -10.48808        -6.12932         2.66386
   H       -2.55604        -5.73922         3.18938
   H        0.34616        -7.62918        -1.96851
   H        5.95414       -10.04442        -5.69706
   H        5.68292        -9.68004        -3.27669
   H        0.78808       -10.55505        -8.41735
   H       -1.13272       -11.83948       -14.18497
   H       -8.57425        -9.42188       -15.64293
   H       -7.33871        -9.21242       -13.42987
   H       -5.65332       -11.44741       -18.51321
*
