# ORCA input file
# SCF done       -246.978285116161          0.000760092692
! CAM-B3LYP def2-SVP def2/J RIJCOSX Grid4 TightSCF
%maxcore 5000
%tddft
    Mode sTDDFT
    Ethresh 5.0
    maxcore 5000
end

%pal
  nprocs 6
  end
* xyz 0 1
   C       -6.80154        -3.53754         2.20485
   C       -5.56878        -3.81978         2.73737
   C       -5.00953        -5.11755         2.76850
   N       -4.50195        -6.14529         2.81514
   C       -4.71941        -2.92499         3.41133
   N       -3.97248        -2.31202         4.03612
   C       -7.74190        -4.52634         1.69282
   C       -9.00070        -3.90101         1.50731
   C      -10.10736        -4.58073         1.06139
   C       -9.96329        -5.94095         0.76772
   C       -8.69926        -6.55552         0.94516
   C       -7.58273        -5.87020         1.40685
   S       -8.74300        -8.23922         0.52121
   C      -10.43362        -8.09904         0.11989
   C      -10.94159        -6.85444         0.29234
  Br      -11.36826        -9.60532        -0.48780
   C       -8.89672        -2.47562         1.87272
   O       -9.81172        -1.69340         2.00548
   C       -7.45122        -2.23933         2.12915
   C       -6.82237        -1.03577         2.23603
   C       -7.36958         0.26434         1.98769
   C       -8.50408         0.41844         1.06326
   C       -8.46534        -0.18170        -0.19389
   C       -9.47966         0.03510        -1.10089
   C      -10.57112         0.83042        -0.76064
   C      -10.62658         1.40920         0.50532
   C       -9.59814         1.21064         1.40287
   C      -11.62057         1.06369        -1.79250
   O      -11.38291         1.07840        -2.96923
   O      -12.87018         1.26197        -1.33678
   C       -6.79021         1.36910         2.56640
   C       -5.76149         1.19822         3.59022
   C       -4.57280         1.92624         3.51005
   C       -3.51775         1.62595         4.34648
   C       -3.63534         0.59279         5.27015
   C       -4.85288        -0.06147         5.42791
   C       -5.91110         0.24594         4.59911
   C       -2.43358         0.14130         6.04667
   O       -1.71427         0.88670         6.65187
   O       -2.21975        -1.17389         5.98959
   C       -7.17516         2.72934         2.24475
   C       -7.39812         3.19475         0.93218
   C       -7.91642         4.50704         0.67471
   N       -8.30136         4.83339        -0.58017
   C       -8.06703         3.99498        -1.54309
   C       -7.35973         2.78946        -1.31140
   N       -7.06847         2.39656        -0.10875
   C       -8.10807         5.44575         1.70897
   C       -7.81014         5.00896         3.00915
   C       -7.34545         3.66765         3.27416
   N       -7.15449         3.46371         4.58446
   S       -7.48350         4.81349         5.37583
   N       -7.90722         5.72588         4.13633
   C       -8.64755         6.77473         1.49294
   C       -9.61741         7.22845         2.49322
   C      -10.63894         6.37112         2.90898
   C      -11.55002         6.78155         3.85585
   C      -11.46847         8.05995         4.40784
   C      -10.44395         8.91277         4.00481
   C       -9.52730         8.49997         3.05698
   C      -12.47595         8.42539         5.44785
   O      -13.06142         7.60242         6.09641
   O      -12.71063         9.73607         5.62433
   C       -8.26677         7.58650         0.45840
   C       -7.14830         7.24047        -0.43595
   C       -7.27621         7.42109        -1.81481
   C       -6.21481         7.16704        -2.65513
   C       -4.99765         6.72790        -2.13625
   C       -4.86870         6.52326        -0.76510
   C       -5.93490         6.77686         0.07384
   C       -3.87210         6.50544        -3.07110
   O       -3.92355         6.71492        -4.25742
   O       -2.76685         6.04131        -2.47267
   C       -8.99125         8.79590         0.18176
   C       -8.55171         9.88237        -0.50372
   C       -7.21564        10.26390        -0.91859
   C       -6.07586        10.04326        -0.19295
   C       -4.78588        10.41819        -0.61309
   N       -3.71659        10.68280        -0.93472
   C       -6.13586         9.50026         1.10625
   N       -6.20008         9.14756         2.19685
   C       -7.35536        11.13257        -2.07601
   C       -8.72130        11.50153        -2.19940
   C       -9.51337        10.81426        -1.15788
   O      -10.69051        10.93321        -0.91243
   C       -9.15971        12.36737        -3.17200
   C       -8.21268        12.88047        -4.06530
   C       -6.85540        12.49220        -3.94073
   C       -6.40783        11.62411        -2.95255
   S       -5.86234        13.24162        -5.15115
   C       -7.25954        14.06151        -5.79654
   C       -8.41352        13.78581        -5.14231
  Br       -7.06375        15.20305        -7.26990
   H      -11.05408        -4.07850         0.93938
   H       -6.64255        -6.38279         1.52253
   H      -11.96414        -6.59128         0.09244
   H       -5.76910        -1.05222         2.49444
   H       -7.61818        -0.79405        -0.46535
   H       -9.44887        -0.40439        -2.08640
   H      -11.45325         2.04928         0.78630
   H       -9.64682         1.65743         2.38501
   H      -12.93287         1.15883        -0.37753
   H       -4.46613         2.68391         2.74750
   H       -2.58032         2.15469         4.26668
   H       -4.96617        -0.81580         6.19299
   H       -6.86089        -0.25337         4.72115
   H       -2.82978        -1.62766         5.37075
   H       -8.42013         4.26516        -2.52787
   H       -7.04710         2.15177        -2.12574
   H      -10.71621         5.38678         2.46996
   H      -12.34275         6.12927         4.18947
   H      -10.32115         9.89050         4.45179
   H       -8.70379         9.14174         2.78361
   H      -12.21704        10.29105         5.00586
   H       -8.22187         7.74502        -2.22330
   H       -6.30096         7.30717        -3.72207
   H       -3.92720         6.18213        -0.36436
   H       -5.82293         6.64583         1.14008
   H       -2.05805         5.93619        -3.12670
   H      -10.04229         8.80768         0.45115
   H      -10.20008        12.64376        -3.24204
   H       -5.36795        11.34702        -2.89133
   H       -9.36752        14.20400        -5.40698
*
