# ORCA input file
# SCF done       -208.489983363249          0.000807372077
! CAM-B3LYP def2-SVP def2/J RIJCOSX Grid4 TightSCF
%maxcore 5000
%tddft
    Mode sTDDFT
    Ethresh 5.0
    maxcore 5000
end

%pal
  nprocs 6
  end
* xyz 0 1
   C      -11.36517         0.36851        -1.63130
   C      -12.45597         0.78247        -0.91939
   F      -13.21268         1.79209        -1.37196
   C      -12.79876         0.15694         0.29548
   F      -13.87398         0.58348         0.97419
   C      -12.04592        -0.87487         0.78178
   C      -10.91663        -1.32482         0.07098
   C      -10.56755        -0.69202        -1.15672
   C       -9.43619        -1.12543        -1.88628
   C       -8.67695        -2.15673        -1.40043
   C       -9.03582        -2.78558        -0.17636
   C      -10.12395        -2.39341         0.54691
   C       -8.08194        -3.87662         0.11296
   O       -8.17640        -4.68599         1.01323
   C       -7.09999        -3.84868        -0.99027
   C       -7.47192        -2.80321        -1.91600
   C       -6.78740        -2.42482        -3.04358
   C       -5.58056        -3.00140        -3.49051
   N       -4.59161        -3.40548        -3.91248
   C       -7.19365        -1.38206        -3.90058
   N       -7.47769        -0.54982        -4.63907
   C       -6.12010        -4.79199        -1.17769
   C       -5.64905        -5.68343        -0.20363
   C       -5.54469        -5.51680         1.17601
   O       -5.76508        -4.34850         1.80999
   C       -5.29773        -4.33126         3.14630
   C       -5.57718        -5.66207         3.85704
   C       -7.07345        -5.94904         3.94442
   O       -4.89263        -6.70664         3.17264
   C       -5.08362        -6.67099         1.83735
   C       -4.80625        -7.72944         0.97490
   S       -4.99687        -7.24430        -0.68097
   C       -4.42641        -9.06293         1.28328
   C       -3.86267        -9.87334         0.26823
   C       -3.41973       -11.20935         0.51341
   N       -2.90168       -11.93132        -0.49386
   C       -2.82139       -11.40442        -1.68307
   C       -3.25462       -10.08322        -1.92444
   N       -3.75200        -9.35430        -0.96566
   C       -3.52067       -11.81945         1.78679
   C       -4.19864       -11.06519         2.76856
   C       -4.64488        -9.70538         2.52070
   N       -5.34184        -9.22661         3.55110
   S       -5.42209       -10.34199         4.69631
   N       -4.59450       -11.49753         3.96480
   C       -3.04100       -13.14298         1.96546
   C       -2.82526       -13.84685         3.14927
   O       -2.81496       -13.28285         4.38115
   C       -2.13526       -14.08363         5.32587
   C       -2.61208       -15.53832         5.25452
   C       -4.10219       -15.63195         5.56999
   O       -2.30202       -16.06952         3.96516
   C       -2.50670       -15.20133         2.94644
   C       -2.37140       -15.53680         1.59803
   S       -2.65575       -14.12744         0.59177
   C       -1.95434       -16.72386         0.97762
   C       -1.89987       -18.01062         1.44368
   C       -0.99667       -18.98239         0.77416
   O       -0.41622       -18.83403        -0.27710
   C       -0.92305       -20.14066         1.69194
   C       -0.15748       -21.26583         1.59711
   C       -0.23965       -22.24103         2.61751
   C       -1.11502       -22.02613         3.72082
   C       -1.18799       -22.99943         4.73717
   C       -0.43050       -24.13445         4.66021
   C        0.43312       -24.34705         3.56776
   C        0.52749       -23.42087         2.56686
   F        1.16524       -25.46935         3.51797
   F       -0.50316       -25.05907         5.62815
   C       -1.90285       -20.85324         3.78686
   C       -1.81112       -19.92705         2.78417
   C       -2.51535       -18.66545         2.56407
   C       -3.69424       -18.30039         3.16584
   C       -4.49436       -17.23847         2.70620
   N       -5.18203       -16.39157         2.34773
   C       -4.26777       -18.98593         4.25200
   N       -4.76332       -19.48017         5.16315
   H      -11.11621         0.85878        -2.55954
   H      -12.32262        -1.34424         1.71292
   H       -9.20285        -0.63049        -2.81508
   H      -10.37693        -2.89020         1.47137
   H       -5.69837        -4.91999        -2.16676
   H       -5.81789        -3.50745         3.63668
   H       -4.21619        -4.13667         3.14967
   H       -5.12564        -5.64856         4.85406
   H       -7.55904        -5.75493         2.99006
   H       -7.52587        -5.31603         4.70253
   H       -7.22041        -6.99232         4.21173
   H       -2.40631       -12.02270        -2.46553
   H       -3.18804        -9.62778        -2.90163
   H       -2.34899       -13.64897         6.30223
   H       -1.05285       -14.04610         5.13494
   H       -2.03467       -16.15529         5.95127
   H       -4.68089       -15.05108         4.85500
   H       -4.28312       -15.24263         6.56805
   H       -4.43584       -16.66520         5.53420
   H       -1.54419       -16.59255        -0.02011
   H        0.50176       -21.41285         0.75511
   H       -1.84725       -22.85427         5.57882
   H        1.19307       -23.59900         1.73642
   H       -2.55558       -20.71460         4.63374
*
