# ORCA input file
# SCF done       -226.157645833575          0.000670937134
! CAM-B3LYP def2-SVP def2/J RIJCOSX Grid4 TightSCF
%maxcore 5000
%tddft
    Mode sTDDFT
    Ethresh 5.0
    maxcore 5000
end

%pal
  nprocs 6
  end
* xyz 0 1
   C       -4.17514         3.50447         1.67908
   C       -4.60753         4.31050         2.69433
   F       -4.40803         5.63313         2.63535
   C       -5.26737         3.76371         3.81401
   F       -5.67919         4.57870         4.79352
   C       -5.48636         2.41758         3.90233
   C       -5.05304         1.56076         2.87180
   C       -4.38497         2.11173         1.73966
   C       -3.93992         1.27234         0.69321
   C       -4.15700        -0.07904         0.77402
   C       -4.82702        -0.61656         1.90579
   C       -5.26697         0.16656         2.93400
   C       -4.94847        -2.07814         1.76222
   O       -5.45482        -2.82503         2.57138
   C       -4.32007        -2.41110         0.45931
   C       -3.82205        -1.17523        -0.13109
   C       -3.15369        -1.02538        -1.31840
   C       -2.80551        -2.04672        -2.22845
   N       -2.47812        -2.80600        -3.02612
   C       -2.69873         0.21541        -1.81689
   N       -2.29938         1.18468        -2.28396
   C       -4.19282        -3.63819        -0.13217
   C       -4.62355        -4.92262         0.25838
   C       -5.34758        -5.39524         1.34672
   C       -5.54323        -6.76786         1.28804
   C       -4.96343        -7.36433         0.14582
   S       -4.18633        -6.23297        -0.85174
   C       -5.21565        -8.75905         0.18949
   C       -5.94991        -9.04401         1.35416
   C       -6.19272        -7.80494         2.07626
   C       -6.90234        -7.65307         3.22936
   C       -7.51301        -8.74714         3.88185
   N       -8.02317        -9.62618         4.41183
   C       -7.11042        -6.40358         3.85527
   N       -7.30878        -5.40955         4.38952
   C       -6.24112       -10.40061         1.48971
   C       -5.74577       -11.14357         0.43395
   S       -4.90982       -10.14848        -0.74591
   C       -5.86938       -12.56770         0.24273
   C       -5.77502       -13.17556        -1.01826
   F       -5.54147       -12.41557        -2.09785
   C       -5.94781       -14.53445        -1.20949
   F       -5.88291       -14.99583        -2.46368
   C       -6.22095       -15.41264        -0.14810
   C       -6.28635       -14.80643         1.11659
   C       -6.11433       -13.44880         1.30768
   F       -6.16582       -12.98930         2.56301
   F       -6.51153       -15.56200         2.20132
   C       -6.44331       -16.82474        -0.33681
   C       -6.09573       -17.60567        -1.42481
   C       -6.51246       -18.92825        -1.27201
   C       -7.19020       -19.14586        -0.05991
   S       -7.28946       -17.74613         0.89721
   C       -7.58364       -20.50598        -0.00070
   C       -7.16197       -21.14988        -1.17872
   C       -6.46634       -20.18003        -2.01308
   C       -5.89073       -20.40397        -3.22777
   C       -5.93194       -21.66864        -3.85449
   N       -5.97443       -22.69014        -4.37236
   C       -5.21550       -19.39119        -3.94340
   N       -4.65881       -18.57685        -4.52673
   C       -7.52375       -22.49345        -1.21306
   C       -8.18152       -22.88981        -0.05859
   S       -8.40010       -21.54942         1.06346
   C       -8.72290       -24.17410         0.19144
   C       -9.10900       -24.72617         1.37206
   C      -10.08945       -25.85100         1.37327
   O      -10.41289       -26.52907         0.42819
   C      -10.61744       -25.89389         2.75259
   C      -11.64228       -26.64206         3.25662
   C      -12.00304       -26.48652         4.61399
   C      -11.29383       -25.55339         5.42575
   C      -11.66778       -25.39521         6.77538
   C      -12.69578       -26.13006         7.29579
   C      -13.39511       -27.05436         6.49304
   C      -13.05645       -27.23049         5.18064
   F      -14.39912       -27.75924         7.02928
   F      -13.05064       -25.97771         8.57728
   C      -10.22937       -24.80056         4.87989
   C       -9.89408       -24.97303         3.56398
   C       -8.84486       -24.36700         2.75055
   C       -7.68582       -23.82012         3.23359
   C       -6.58632       -23.49446         2.41252
   N       -5.66768       -23.25308         1.76814
   C       -7.43629       -23.60354         4.60425
   N       -7.19882       -23.39659         5.70744
   H       -3.67174         3.93937         0.82975
   H       -5.99282         2.01404         4.76506
   H       -3.43862         1.72467        -0.14651
   H       -5.77193        -0.27480         3.77975
   H       -3.67116        -3.65077        -1.08175
   H       -5.69807        -4.74668         2.13014
   H       -6.80031       -10.81884         2.30528
   H       -5.55621       -17.23795        -2.27741
   H       -7.30454       -23.17512        -2.01493
   H       -8.93530       -24.76928        -0.69195
   H      -12.17276       -27.34125         2.62842
   H      -11.14036       -24.69521         7.40438
   H      -13.60173       -27.94159         4.58008
   H       -9.71278       -24.09517         5.51136
*
