# ORCA input file
# SCF done       -221.604651461465          0.000425308364
! CAM-B3LYP def2-SVP def2/J RIJCOSX Grid4 TightSCF
%maxcore 5000
%tddft
    Mode sTDDFT
    Ethresh 5.0
    maxcore 5000
end

%pal
  nprocs 6
  end
* xyz 0 1
   C      -11.90179         1.18072        -0.92396
   C      -12.83124         1.29558        -1.91967
   F      -13.54013         2.42346        -2.05185
   C      -13.05631         0.23252        -2.81738
   F      -13.97375         0.37238        -3.78300
   C      -12.34849        -0.93148        -2.70652
   C      -11.38531        -1.08059        -1.69001
   C      -11.15582        -0.00644        -0.78204
   C      -10.19474        -0.13348         0.24773
   C       -9.48798        -1.30060         0.36882
   C       -9.72938        -2.36895        -0.53970
   C      -10.64540        -2.27515        -1.54732
   C       -8.86693        -3.50632        -0.18373
   O       -8.80253        -4.57405        -0.76984
   C       -8.12272        -3.10105         1.01275
   C       -8.45775        -1.72125         1.31684
   C       -7.90072        -0.92429         2.28171
   C       -6.86522        -1.30283         3.16271
   N       -6.01858        -1.53119         3.90394
   C       -8.27739         0.41677         2.50942
   N       -8.53961         1.50896         2.74500
   C       -7.31945        -3.92093         1.76510
   C       -6.97185        -5.26714         1.57838
   C       -6.22467        -5.97590         2.52943
   C       -6.02030        -7.29289         2.16836
   C       -6.59482        -7.59516         0.90956
   S       -7.40219        -6.27748         0.19799
   C       -6.36230        -8.96537         0.64362
   C       -5.65718        -9.53311         1.72133
   C       -5.40718        -8.49754         2.71047
   C       -4.75062        -8.63398         3.89738
   C       -4.20394        -9.86614         4.31639
   N       -3.75905       -10.86413         4.66319
   C       -4.57760        -7.55352         4.78909
   N       -4.44152        -6.67911         5.51755
   C       -5.42847       -10.89895         1.56179
   C       -5.94449       -11.37463         0.37051
   S       -6.71688       -10.10649        -0.57188
   C       -5.95539       -12.72360        -0.10573
   C       -6.39255       -13.05090        -1.38048
   C       -6.47851       -14.36644        -1.81711
   F       -6.92505       -14.55021        -3.07730
   C       -6.17664       -15.48273        -1.04254
   C       -5.68587       -15.17340         0.25741
   C       -5.56306       -13.81447         0.71751
   N       -5.08193       -13.75736         1.95774
   S       -4.80337       -15.24403         2.49039
   N       -5.28362       -16.04116         1.18410
   C       -6.37842       -16.83186        -1.47652
   C       -6.33813       -17.96585        -0.68123
   C       -6.65058       -19.11674        -1.39813
   C       -6.90791       -18.86008        -2.75900
   S       -6.78823       -17.20577        -3.14273
   C       -7.23530       -20.08241        -3.39503
   C       -7.20466       -21.11002        -2.42837
   C       -6.82497       -20.53782        -1.14733
   C       -6.66705       -21.20529         0.03148
   C       -6.88036       -22.59758         0.11774
   N       -7.06984       -23.72731         0.16984
   C       -6.29986       -20.55044         1.22606
   N       -6.01376       -20.01825         2.20027
   C       -7.52317       -22.35472        -2.95099
   C       -7.78429       -22.30184        -4.31476
   S       -7.65776       -20.65776        -4.93734
   C       -8.18618       -23.32643        -5.19393
   C       -8.17806       -24.67906        -5.01879
   C       -9.06530       -25.50215        -5.88959
   O       -9.62158       -25.13905        -6.89960
   C       -9.15952       -26.81247        -5.21769
   C       -9.95515       -27.87844        -5.52382
   C       -9.91396       -29.02412        -4.69802
   C       -9.04950       -29.03944        -3.56477
   C       -9.02575       -30.17987        -2.73715
   C       -9.81980       -31.25497        -3.02279
   C      -10.67205       -31.23964        -4.14533
   C      -10.71879       -30.14833        -4.96667
   F      -11.44036       -32.30711        -4.40034
   F       -9.79648       -32.33767        -2.23513
   C       -8.22801       -27.92430        -3.27957
   C       -8.27754       -26.82973        -4.09993
   C       -7.54641       -25.56397        -4.06518
   C       -6.34319       -25.37436        -3.43584
   C       -5.54764       -24.22523        -3.60579
   N       -4.87022       -23.30772        -3.73845
   C       -5.72189       -26.34770        -2.62514
   N       -5.17489       -27.11083        -1.96596
   H      -11.74186         2.00456        -0.24608
   H      -12.53259        -1.73615        -3.40100
   H      -10.04854         0.69728         0.91857
   H      -10.80547        -3.10164        -2.22286
   H       -6.89989        -3.49902         2.67065
   H       -5.87349        -5.51788         3.43728
   H       -4.92531       -11.54016         2.26178
   H       -6.69145       -12.27558        -2.06956
   H       -6.09877       -17.92281         0.36498
   H       -7.61747       -23.25323        -2.36967
   H       -8.64685       -22.99923        -6.12176
   H      -10.61041       -27.84667        -6.38089
   H       -8.37696       -30.20943        -1.87580
   H      -11.37692       -30.15146        -5.82140
   H       -7.59081       -27.95724        -2.41024
*
