# ORCA input file
# SCF done       -227.347907326911          0.000511411020
! CAM-B3LYP def2-SVP def2/J RIJCOSX Grid4 TightSCF
%maxcore 5000
%tddft
    Mode sTDDFT
    Ethresh 5.0
    maxcore 5000
end

%pal
  nprocs 6
  end
* xyz 0 1
   C       -0.68310        -4.85825        -5.61820
   C       -2.01900        -5.06252        -5.39690
   C       -2.90287        -5.59800        -6.35666
   N       -3.66204        -6.03459        -7.09748
   C       -2.66970        -4.65458        -4.21323
   N       -3.22849        -4.29724        -3.27671
   C       -0.01966        -4.97870        -6.91523
   C        1.13313        -4.16952        -6.90722
   C        1.94380        -4.05740        -8.01527
   C        1.60307        -4.78034        -9.16468
   C        0.46688        -5.60464        -9.17058
   C       -0.34690        -5.70675        -8.04453
   C        0.09879        -6.43367       -10.35821
   O       -0.51625        -7.46554       -10.27753
   O        0.52963        -5.89321       -11.49475
   C        0.26210        -6.61423       -12.69035
   C        2.46856        -4.68476       -10.28260
   N        3.23204        -4.57448       -11.12973
   C        1.29923        -3.56006        -5.56421
   O        2.14330        -2.77506        -5.20598
   C        0.23886        -4.18542        -4.73007
   C        0.33622        -4.13883        -3.37010
   C       -0.23611        -4.98998        -2.40416
   C       -0.24120        -4.76820        -1.03063
   C       -0.80113        -5.82389        -0.32653
   C       -1.20523        -6.88824        -1.16616
   S       -0.90469        -6.57304        -2.80907
   C       -1.73989        -7.92475        -0.37456
   C       -1.67888        -7.52082         0.97765
   C       -1.09028        -6.19167         1.04990
   C       -0.85460        -5.45408         2.17212
   C       -1.17662        -5.92615         3.46289
   N       -1.43236        -6.30380         4.51461
   C       -0.26382        -4.17339         2.11702
   N        0.22220        -3.13617         2.07410
   C       -2.17886        -8.48010         1.84460
   C       -2.62568        -9.61032         1.16573
   S       -2.42869        -9.48143        -0.57103
   C       -3.18149       -10.78320         1.73505
   C       -3.61800       -11.84593         0.90762
   C       -4.16693       -13.05300         1.43934
   N       -4.56624       -14.02534         0.60228
   C       -4.44587       -13.85020        -0.68460
   C       -3.90136       -12.66055        -1.20922
   N       -3.50372       -11.69882        -0.42299
   C       -4.30320       -13.27372         2.83116
   C       -3.88197       -12.21277         3.66338
   C       -3.33293       -10.98731         3.12451
   N       -3.00334       -10.13333         4.09622
   S       -3.34247       -10.78425         5.51892
   N       -3.92222       -12.18198         4.99735
   C       -4.82189       -14.49949         3.31864
   C       -4.98464       -14.86737         4.65091
   C       -5.50411       -16.14683         4.77463
   C       -5.74362       -16.76015         3.52489
   S       -5.32160       -15.75447         2.20191
   C       -6.26167       -18.05010         3.75920
   C       -6.35448       -18.26331         5.15882
   C       -5.87017       -17.07142         5.83737
   C       -5.75686       -16.86063         7.17911
   C       -6.10125       -17.83073         8.14644
   N       -6.35816       -18.60025         8.95571
   C       -5.26178       -15.64615         7.70295
   N       -4.85996       -14.66344         8.13556
   C       -6.86307       -19.50802         5.48954
   C       -7.16413       -20.26978         4.36225
   S       -6.79202       -19.39189         2.86575
   C       -7.65772       -21.57292         4.18353
   C       -8.10780       -22.51161         5.07670
   C       -8.52633       -23.85035         4.69457
   C       -8.41061       -24.44579         3.46542
   C       -8.83733       -25.76109         3.17657
   N       -9.15750       -26.81735         2.86218
   C       -7.83962       -23.87353         2.30786
   N       -7.38651       -23.49724         1.32166
   C       -9.06368       -24.50574         5.88636
   C       -8.94460       -23.62804         6.97770
   C       -8.33699       -22.35398         6.53067
   O       -8.11672       -21.39509         7.23682
   C       -9.36010       -23.97396         8.24462
   C       -9.91859       -25.24235         8.43402
   C      -10.04745       -26.12510         7.34913
   C       -9.62036       -25.75997         6.07405
   C      -10.65388       -27.46572         7.59039
   O      -11.05666       -27.83874         8.66221
   O      -10.69764       -28.20370         6.47924
   C      -11.26013       -29.50139         6.61499
   C      -10.33858       -25.58390         9.74503
   N      -10.63168       -25.72996        10.84301
   H        2.82387        -3.43241        -7.99600
   H       -1.19998        -6.36641        -8.08307
   H        0.90889        -6.18478       -13.45078
   H       -0.78717        -6.49865       -12.96887
   H        0.47780        -7.67464       -12.54807
   H        1.03158        -3.39996        -2.98272
   H        0.13347        -3.85986        -0.59390
   H       -2.23335        -8.40271         2.91500
   H       -4.78144       -14.65507        -1.32225
   H       -3.79433       -12.50059        -2.27220
   H       -4.72355       -14.20702         5.45729
   H       -7.02531       -19.87066         6.48903
   H       -7.68245       -21.86850         3.14121
   H       -9.25524       -23.28306         9.06750
   H       -9.73839       -26.46392         5.26774
   H      -11.19347       -29.96136         5.63274
   H      -12.30022       -29.43053         6.93934
   H      -10.70157       -30.08050         7.35292
*
