# ORCA input file
# SCF done       -202.447523274887          0.000896075627
! CAM-B3LYP def2-SVP def2/J RIJCOSX Grid4 TightSCF
%maxcore 5000
%tddft
    Mode sTDDFT
    Ethresh 5.0
    maxcore 5000
end

%pal
  nprocs 6
  end
* xyz 0 1
   C       -0.41268         6.08047         3.34171
   C       -1.36827         6.88436         2.78664
   C       -1.47224         8.26753         3.03582
   N       -1.56694         9.40535         3.15512
   C       -2.38095         6.42419         1.91910
   N       -3.25219         6.08979         1.25058
   C        0.45594         6.43950         4.45393
   C        0.93790         5.24232         5.06283
   C        1.74449         5.27354         6.16492
   C        2.12320         6.52225         6.70637
   C        1.66114         7.72176         6.08953
   C        0.81709         7.65941         4.95796
   C        2.05632         8.96072         6.63411
   C        2.86494         9.01530         7.73645
   C        3.31603         7.83431         8.34520
   C        2.95293         6.61479         7.84154
   C        0.44746         4.07628         4.31063
   O        0.58941         2.90427         4.55682
   C       -0.22257         4.66111         3.10063
   C       -0.33826         3.90551         1.98227
   C       -0.56650         4.35336         0.65254
   O       -0.54986         5.66470         0.33393
   C       -0.78921         3.64069        -0.50981
   C       -0.90598         2.27977        -1.04916
   O       -0.84335         1.20726        -0.51597
   N       -1.10597         2.49484        -2.41219
   C       -1.11902         3.82237        -2.81379
   O       -1.22492         4.18794        -3.95620
   C       -0.94303         4.57947        -1.56141
   C       -0.79673         5.83390        -0.98822
   C       -0.83246         7.20355        -1.39187
   N       -1.42787         7.73617        -2.50024
   C       -2.29605         7.06419        -3.43709
   C       -3.64418         6.73392        -2.80102
   C       -1.30393         9.14795        -2.52478
   O       -1.76658         9.83368        -3.40976
   C       -0.55170         9.46006        -1.33147
   C       -0.27843         8.24743        -0.65518
   C        0.48198         8.57028         0.53381
   O        0.92853         7.88275         1.42952
   N        0.61796         9.97174         0.49521
   C        1.28764        10.65927         1.57292
   C        2.77348        10.85734         1.28277
   C        0.00740        10.51372        -0.60883
   C       -0.09758        11.87068        -1.01097
   C        0.56825        12.97069        -0.57796
   C        0.30002        14.23961        -1.16342
   O       -0.61013        14.33314        -2.15339
   C        0.80807        15.50732        -0.93009
   C        1.75927        16.27910        -0.12095
   O        2.51132        15.93616         0.75248
   N        1.61520        17.57764        -0.60130
   C        0.68509        17.74106        -1.62905
   O        0.43761        18.77713        -2.18024
   C        0.15673        16.38201        -1.83086
   C       -0.73017        15.61205        -2.56762
   C       -1.61929        15.96507        -3.62195
   C       -2.51033        15.13237        -4.21840
   C       -3.26267        15.41720        -5.43689
   C       -3.53980        16.65211        -5.95391
   C       -4.27737        16.85689        -7.14046
   N       -4.86625        17.08257        -8.09925
   C       -3.18567        17.88144        -5.35513
   N       -2.95276        18.91721        -4.92055
   C       -3.70441        14.14037        -5.98445
   C       -3.41690        13.11495        -5.03799
   C       -2.82162        13.71099        -3.83599
   O       -2.71015        13.19471        -2.75062
   C       -3.69314        11.79942        -5.27713
   C       -4.29496        11.44491        -6.50444
   C       -4.60305        12.46356        -7.45391
   C       -4.29400        13.81550        -7.17870
   C       -5.21390        12.09341        -8.66995
   C       -5.50482        10.78338        -8.93696
   C       -5.19643         9.78170        -8.00362
   C       -4.60386        10.10565        -6.81356
   H        2.09179         4.35648         6.61715
   H        0.48380         8.57908         4.50475
   H        1.70350         9.86727         6.16465
   H        3.16116         9.96913         8.14649
   H        3.95296         7.89605         9.21472
   H        3.29763         5.70260         8.30592
   H       -0.16477         2.84032         2.08401
   H       -1.20618         1.73660        -3.07273
   H       -1.81279         6.16339        -3.81473
   H       -2.43473         7.76457        -4.26518
   H       -3.51709         6.09856        -1.92736
   H       -4.26885         6.21354        -3.52115
   H       -4.15039         7.64534        -2.49038
   H        1.17679        10.02295         2.45546
   H        0.78002        11.60647         1.76124
   H        3.26581         9.89046         1.21101
   H        3.23432        11.42350         2.08727
   H        2.92601        11.39023         0.34701
   H       -0.81897        12.01168        -1.80867
   H        1.32897        12.96850         0.18507
   H        2.15142        18.35200        -0.23566
   H       -1.49998        16.98149        -3.97363
   H       -3.42900        11.04634        -4.54993
   H       -4.52339        14.55955        -7.92514
   H       -5.44976        12.86677        -9.38620
   H       -5.97407        10.51113        -9.87048
   H       -5.43151         8.75319        -8.23336
   H       -4.36308         9.34280        -6.08823
*
