# ORCA input file
# SCF done       -230.981946398012          0.000452371570
! CAM-B3LYP def2-SVP def2/J RIJCOSX Grid4 TightSCF
%maxcore 5000
%tddft
    Mode sTDDFT
    Ethresh 5.0
    maxcore 5000
end

%pal
  nprocs 6
  end
* xyz 0 1
   C        5.83245        -1.14915         7.66519
   C        7.01193        -1.49705         8.26152
   F        7.88099        -0.55099         8.63728
   C        7.32937        -2.85185         8.48909
   F        8.49268        -3.16290         9.07457
   C        6.46163        -3.84019         8.11761
   C        5.23785        -3.51353         7.50157
   C        4.91536        -2.14431         7.27061
   C        3.69214        -1.79276         6.65573
   C        2.81524        -2.77978         6.28748
   C        3.14779        -4.14379         6.51939
   C        4.32365        -4.51444         7.10632
   C        2.06159        -5.00874         6.02431
   O        2.05402        -6.21992         6.00175
   C        1.03568        -4.08377         5.47035
   C        1.49907        -2.72047         5.65911
   C        0.79742        -1.57912         5.37712
   C       -0.51388        -1.54815         4.85469
   N       -1.58470        -1.45111         4.45351
   C        1.28668        -0.27533         5.60680
   N        1.63549         0.80585         5.76827
   C       -0.04756        -4.49771         4.75515
   C       -0.54105        -5.83109         4.70790
   C       -1.15712        -6.42020         3.62553
   C       -1.45499        -7.78118         3.94225
   C       -1.04756        -7.96904         5.34286
   C       -0.50658        -6.80432         5.79032
   C       -1.21955        -9.11979         6.11955
   N       -1.35964       -10.05268         6.77643
   C       -1.98739        -8.74467         3.11599
   C       -2.19946       -10.11107         3.43993
   C       -2.74897       -10.76244         2.35370
   C       -2.90613        -9.77419         1.28556
   C       -2.44586        -8.57639         1.72104
   C       -2.41035        -7.39279         0.97348
   N       -2.37756        -6.43292         0.34441
   C       -3.10520       -12.12117         2.20208
   S       -3.89843       -12.63294         0.74233
   C       -3.94077       -14.28175         1.28080
   C       -3.41960       -14.40052         2.57579
   C       -2.94900       -13.19390         3.09110
   C       -2.34848       -13.06705         4.45053
   C       -2.18986       -14.41223         5.16262
   O       -1.01036       -15.02367         4.68118
   C       -0.47617       -16.02557         5.50931
   C       -3.43591       -15.28548         4.89182
   O       -4.64273       -14.61905         5.19329
   C       -4.91860       -14.47438         6.56502
   C       -3.45088       -15.63940         3.40423
   C       -4.47792       -15.27238         0.41249
   C       -5.43402       -14.91171        -0.57837
   C       -6.01953       -15.86915        -1.47966
   N       -7.01494       -15.48270        -2.29150
   C       -7.34415       -14.21726        -2.36224
   C       -6.67826       -13.24445        -1.55168
   N       -5.79653       -13.63022        -0.66181
   C       -7.00038       -11.86950        -1.66068
   N       -7.28423       -10.76577        -1.77222
   C       -8.37266       -13.85625        -3.26960
   N       -9.17706       -13.58225        -4.03690
   C       -5.59296       -17.21426        -1.52090
   C       -4.62761       -17.57055        -0.56017
   C       -4.07268       -16.62570         0.38483
   N       -3.10216       -17.18758         1.10929
   S       -2.92550       -18.71600         0.67346
   N       -4.05352       -18.76991        -0.45985
   C       -6.09181       -18.18440        -2.43683
   C       -6.66368       -18.00156        -3.65456
   C       -7.52075       -19.08514        -4.22580
   O       -7.55763       -20.23874        -3.87240
   C       -8.34468       -18.41435        -5.25060
   C       -9.41062       -18.90242        -5.95016
   C      -10.09823       -18.04510        -6.83826
   C       -9.67223       -16.69146        -6.97829
   C      -10.38065       -15.83575        -7.84543
   C      -11.45627       -16.30384        -8.54686
   C      -11.87201       -17.64448        -8.41356
   C      -11.20866       -18.49784        -7.57712
   F      -12.92879       -18.07638        -9.11409
   F      -12.12882       -15.49244        -9.37189
   C       -8.55414       -16.21799        -6.25465
   C       -7.89565       -17.07146        -5.41077
   C       -6.73761       -16.86472        -4.54918
   C       -5.78287       -15.89768        -4.72420
   C       -4.61221       -15.81573        -3.94710
   N       -3.66518       -15.70266        -3.30699
   C       -5.86722       -14.87966        -5.69643
   N       -5.88953       -14.02200        -6.45816
   H        5.60533        -0.10760         7.49944
   H        6.71884        -4.87218         8.29810
   H        3.48145        -0.74891         6.48852
   H        4.55012        -5.55729         7.26874
   H       -0.57101        -3.78428         4.13015
   H       -1.32573        -5.96165         2.67028
   H       -0.16791        -6.60907         6.78903
   H       -1.96121       -10.52882         4.39308
   H       -3.31735        -9.99013         0.31676
   H       -2.97795       -12.41445         5.06012
   H       -1.35569       -12.61821         4.37417
   H       -2.08394       -14.23112         6.24388
   H        0.48265       -16.29814         5.07259
   H       -1.11592       -16.91421         5.55200
   H       -0.31793       -15.65395         6.52866
   H       -3.37419       -16.21305         5.48565
   H       -5.93714       -14.09629         6.62921
   H       -4.24254       -13.76355         7.05143
   H       -4.85534       -15.43783         7.08519
   H       -4.34435       -16.22126         3.17795
   H       -2.57271       -16.24709         3.18171
   H       -6.05667       -19.21008        -2.08290
   H       -9.73162       -19.92494        -5.82129
   H      -10.07528       -14.80724        -7.95646
   H      -11.54165       -19.51972        -7.48382
   H       -8.26211       -15.18574        -6.36462
*
