# ORCA input file
# SCF done       -215.625209926816          0.000858651612
! CAM-B3LYP def2-SVP def2/J RIJCOSX Grid4 TightSCF
%maxcore 5000
%tddft
    Mode sTDDFT
    Ethresh 5.0
    maxcore 5000
end

%pal
  nprocs 6
  end
* xyz 0 1
   C       -5.86056        -0.77698        -0.95764
   C       -5.34162        -0.68823        -2.21884
   F       -4.80581         0.46108        -2.64760
   C       -5.36293        -1.80174        -3.08309
   F       -4.84678        -1.68683        -4.31380
   C       -5.90476        -2.98798        -2.67453
   C       -6.44912        -3.11085        -1.38119
   C       -6.42450        -1.98676        -0.50501
   C       -6.95724        -2.08937         0.80008
   C       -7.49764        -3.27829         1.21358
   C       -7.53272        -4.39260         0.32784
   C       -7.02307        -4.32267        -0.93734
   C       -8.19327        -5.53219         0.99112
   O       -8.43247        -6.61677         0.50091
   C       -8.58742        -5.03251         2.33155
   C       -8.08743        -3.67937         2.48461
   C       -8.07178        -2.96196         3.64930
   C       -8.49818        -3.47918         4.89210
   N       -8.77432        -3.87443         5.93347
   C       -7.56484        -1.65038         3.76131
   N       -7.16872        -0.58218         3.89831
   C       -9.46446        -5.67135         3.15210
   C       -9.85479        -7.03299         3.01382
   C      -11.15523        -7.52645         3.01918
   N      -12.32009        -6.75212         3.14466
   O      -12.19679        -5.53647         3.17221
   O      -13.38481        -7.33823         3.21903
   C      -11.13563        -8.93850         2.78574
   C       -9.84213        -9.31903         2.60821
   C       -8.98884        -8.16839         2.75540
   C       -7.60440        -8.17664         2.85355
   C       -6.80135        -7.35241         3.67283
   C       -5.52702        -7.86824         3.71079
   C       -5.45197        -8.99944         2.85752
   N       -4.28552        -9.73748         2.64804
   O       -3.26692        -9.36243         3.20578
   O       -4.34112       -10.73365         1.93337
   C       -6.70907        -9.18835         2.24959
   C       -7.00201       -10.01090         1.17053
   C       -8.10052        -9.84554         0.34157
   C       -8.52372       -10.70145        -0.66661
   S       -9.72641       -10.09058        -1.77510
   C       -9.71506       -11.52092        -2.72808
   C       -8.86531       -12.49896        -2.17444
   C       -8.18653       -12.04156        -1.00341
   C       -7.33770       -12.91335        -0.31296
   C       -7.13270       -14.19833        -0.77156
   C       -6.22067       -15.13236        -0.04844
   C       -7.82963       -14.64709        -1.90976
   C       -8.68977       -13.83207        -2.59343
   C      -10.52016       -11.55192        -3.90954
   C      -10.27485       -12.29690        -4.99584
   C      -11.16905       -12.34174        -6.18514
   C      -11.62174       -13.78344        -6.45000
   O      -12.53074       -14.44612        -6.06659
   C      -10.41954       -12.44638        -7.52122
   O       -9.99474       -11.65148        -8.29258
   C      -10.54609       -13.97112        -7.52015
   C      -10.84125       -14.73396        -8.74886
   C      -11.44459       -15.92794        -8.86385
   C      -11.91195       -16.35097       -10.22930
   O      -11.56844       -15.86618       -11.27774
   C      -12.89306       -17.41994        -9.98893
   C      -13.70180       -18.05356       -10.88977
   C      -14.61281       -19.02786       -10.42741
   C      -14.67680       -19.31799        -9.03245
   C      -15.59857       -20.28162        -8.57444
   C      -16.41356       -20.92978        -9.45941
   C      -16.34652       -20.64456       -10.83958
   C      -15.46579       -19.71348       -11.31454
   F      -17.15667       -21.29494       -11.68147
   F      -17.28616       -21.84461        -9.02444
   C      -13.82403       -18.65079        -8.12549
   C      -12.93281       -17.72139        -8.59729
   C      -11.93084       -16.91732        -7.90482
   C      -11.45211       -17.18761        -6.65412
   C      -10.37854       -16.52274        -6.03569
   N       -9.49697       -16.01219        -5.50416
   C      -11.94631       -18.21933        -5.82307
   N      -12.29037       -19.04357        -5.10409
   H       -5.83456         0.08391        -0.30803
   H       -5.91366        -3.83015        -3.34860
   H       -6.93089        -1.22209         1.44009
   H       -7.05658        -5.18100        -1.59117
   H       -9.97150        -5.10745         3.92728
   H      -12.01569        -9.55174         2.76144
   H       -9.48378       -10.32333         2.48836
   H       -7.16563        -6.53814         4.27004
   H       -4.70043        -7.50257         4.29147
   H       -6.24805       -10.74456         0.92052
   H       -8.64662        -8.91383         0.42665
   H       -6.85153       -12.59841         0.59475
   H       -6.80442       -15.87577         0.49512
   H       -5.59494       -14.59884         0.66163
   H       -5.58523       -15.66530        -0.75292
   H       -7.69440       -15.66748        -2.23517
   H       -9.25122       -14.22542        -3.42459
   H      -11.35874       -10.86672        -3.91348
   H       -9.39605       -12.92177        -5.04665
   H      -11.95914       -11.59274        -6.12223
   H       -9.64702       -14.36623        -7.02844
   H      -10.62086       -14.21862        -9.67897
   H      -13.64714       -17.81098       -11.94005
   H      -15.66079       -20.51435        -7.52287
   H      -15.42763       -19.50594       -12.37243
   H      -13.90612       -18.88115        -7.07562
*
