# ORCA input file
# SCF done       -224.716746646933          0.000421254904
! CAM-B3LYP def2-SVP def2/J RIJCOSX Grid4 TightSCF
%maxcore 5000
%tddft
    Mode sTDDFT
    Ethresh 5.0
    maxcore 5000
end

%pal
  nprocs 6
  end
* xyz 0 1
   C        3.78660        -0.11680         8.57677
   C        5.07185        -0.33025         8.98959
   F        5.81282         0.68944         9.43751
   C        5.63352        -1.62331         8.94924
   F        6.89466        -1.80190         9.35933
   C        4.90149        -2.68498         8.49620
   C        3.57453        -2.49705         8.06259
   C        3.00511        -1.19052         8.10412
   C        1.67576        -0.97799         7.67460
   C        0.93829        -2.03903         7.21733
   C        1.51721        -3.33902         7.17200
   C        2.79886        -3.57462         7.58153
   C        0.54545        -4.29493         6.61131
   O        0.72498        -5.47073         6.38638
   C       -0.66479        -3.48690         6.28880
   C       -0.43042        -2.11890         6.72072
   C       -1.35518        -1.11073         6.73959
   C       -2.70308        -1.25466         6.34346
   N       -3.81351        -1.31271         6.06023
   C       -1.08743         0.19648         7.20063
   N       -0.92024         1.27245         7.56181
   C       -1.69926        -3.94470         5.53569
   C       -1.94437        -5.30939         5.20345
   C       -2.46626        -5.75329         4.01345
   C       -2.52818        -7.18478         4.03463
   C       -2.06847        -7.58910         5.37392
   C       -1.71673        -6.46979         6.05912
   C       -2.02300        -8.89168         5.88629
   N       -1.98856        -9.94896         6.33415
   C       -2.90812        -8.01702         3.01224
   C       -2.93433        -9.44311         3.03233
   C       -3.32037        -9.91162         1.79579
   C       -3.57231        -8.75338         0.94146
   C       -3.34094        -7.62402         1.65670
   C       -3.49571        -6.31854         1.17490
   N       -3.63075        -5.25550         0.76234
   C       -3.45146       -11.28749         1.43325
   C       -3.47842       -11.74896         0.09339
   C       -3.59971       -13.14865        -0.24159
   N       -3.48448       -13.53662        -1.52183
   C       -3.30559       -12.64361        -2.46048
   C       -3.26813       -11.24720        -2.13847
   N       -3.34256       -10.85033        -0.89514
   C       -3.14855       -10.27868        -3.16791
   N       -3.06003        -9.52189        -4.02237
   C       -3.17383       -13.07932        -3.80345
   N       -3.08705       -13.40614        -4.89733
   C       -3.75792       -14.14843         0.74727
   C       -3.67022       -13.69267         2.07772
   C       -3.52341       -12.29910         2.41739
   N       -3.48545       -12.12923         3.74145
   S       -3.59636       -13.54285         4.47169
   N       -3.71873       -14.46486         3.16713
   C       -3.86382       -15.54845         0.47103
   S       -3.19251       -16.64055         1.64897
   C       -3.49910       -18.01888         0.63837
   C       -4.15086       -17.63226        -0.52762
   C       -4.37387       -16.24582        -0.61526
   C       -5.23933       -15.73154        -1.72245
   C       -6.59725       -16.41793        -1.68301
   S       -6.44178       -18.24534        -1.66049
   O       -6.95995       -18.78371        -2.88402
   O       -6.99043       -18.72529        -0.42411
   C       -4.62164       -18.51625        -1.60413
   C       -3.22220       -19.34737         1.05271
   C       -2.34633       -19.77910         1.99518
   C       -2.52564       -21.13151         2.60396
   O       -3.19934       -22.03390         2.17156
   C       -1.74731       -21.08807         3.85824
   C       -1.68200       -22.01538         4.85827
   C       -0.88166       -21.74798         5.99143
   C       -0.16470       -20.51788         6.06862
   C        0.62567       -20.25581         7.20585
   C        0.70343       -21.17211         8.21683
   C       -0.00449       -22.38907         8.13863
   C       -0.78046       -22.67218         7.04964
   F        0.08955       -23.26687         9.14460
   F        1.45473       -20.92142         9.29549
   C       -0.24455       -19.57992         5.01426
   C       -1.02025       -19.86394         3.92222
   C       -1.25675       -19.12106         2.68865
   C       -0.42924       -18.16667         2.16150
   C       -0.53988       -17.70141         0.83379
   N       -0.57116       -17.34401        -0.25627
   C        0.66673       -17.61282         2.85368
   N        1.55125       -17.11777         3.39142
   H        3.37211         0.87850         8.61519
   H        5.34605        -3.66754         8.47079
   H        1.27557         0.02236         7.71082
   H        3.21441        -4.56987         7.53687
   H       -2.38339        -3.23103         5.09202
   H       -2.73244        -5.14122         3.17361
   H       -1.38018        -6.42960         7.07672
   H       -2.66893       -10.04679         3.87569
   H       -3.90123        -8.80272        -0.07790
   H       -4.75288       -15.91683        -2.68347
   H       -5.38655       -14.65651        -1.63325
   H       -7.19206       -16.18119        -2.56001
   H       -7.14423       -16.17088        -0.77708
   H       -4.24657       -18.23556        -2.58490
   H       -4.45139       -19.57199        -1.42286
   H       -3.86031       -20.11832         0.63109
   H       -2.23369       -22.94019         4.78620
   H        1.17712       -19.33161         7.28025
   H       -1.31588       -23.60758         7.00500
   H        0.30150       -18.65374         5.09888
*
