# ORCA input file
# SCF done       -196.012032834628          0.000549106553
! CAM-B3LYP def2-SVP def2/J RIJCOSX Grid4 TightSCF
%maxcore 5000
%tddft
    Mode sTDDFT
    Ethresh 5.0
    maxcore 5000
end

%pal
  nprocs 6
  end
* xyz 0 1
   C       -1.62624         1.29726        -4.84778
   S       -0.76419         0.21216        -3.87209
   C       -2.04473        -0.95698        -3.90905
   C       -3.06829        -0.53499        -4.77258
   C       -2.83171         0.77857        -5.28966
   C       -3.78763         1.37935        -6.15185
   C       -3.56450         2.68756        -6.63364
   N       -3.37691         3.75008        -7.02066
   C       -4.91487         0.67153        -6.51808
   C       -5.09017        -0.65124        -6.10389
   C       -4.18086        -1.26585        -5.25992
   C       -4.30958        -2.64599        -5.01622
   N       -4.40205        -3.78694        -4.92313
   C       -2.04076        -2.09432        -3.05472
   C       -0.98860        -2.96080        -2.76701
   N        0.32470        -2.88678        -3.22454
   O        1.02147        -3.88167        -3.13663
   O        0.71931        -1.81995        -3.69394
   C       -1.47169        -4.03881        -1.95523
   C       -2.79495        -3.84075        -1.71380
   C       -3.20967        -2.62416        -2.34276
   C       -4.39064        -1.92996        -2.08547
   C       -4.53326        -0.51885        -2.08430
   C       -5.73283        -0.18072        -1.50417
   C       -6.41907        -1.36168        -1.14910
   N       -7.70509        -1.35175        -0.58715
   O       -8.25731        -2.41672        -0.35313
   O       -8.20369        -0.26216        -0.35976
   C       -5.63820        -2.48272        -1.52423
   C       -6.05510        -3.80738        -1.47317
   C       -5.54460        -4.84465        -2.23883
   C       -5.90376        -6.17076        -2.09959
   S       -6.87398        -6.75941        -0.77766
   C       -6.75936        -8.41247        -1.32050
   C       -5.97926        -8.50135        -2.51510
   C       -5.49679        -7.24632        -2.95164
   C       -4.71943        -7.15051        -4.10586
   C       -4.41046        -8.29452        -4.81961
   C       -3.57500        -8.22482        -6.05536
   C       -4.88162        -9.53757        -4.36972
   C       -5.65538        -9.65235        -3.23847
   C       -7.31640        -9.47008        -0.62878
   C       -8.03331        -9.33837         0.55268
   C       -8.50876       -10.37557         1.34115
   C       -9.51754       -10.26068         2.33789
   N      -10.11910        -9.09158         2.83029
   O      -11.00784        -9.22776         3.65375
   O       -9.72469        -8.00792         2.42565
   C       -9.89108       -11.54680         2.76039
   C       -9.14395       -12.48177         2.06663
   C       -8.24007       -11.81617         1.21474
   C       -7.16696       -12.41434         0.53741
   C       -5.87058       -11.87749         0.39513
   C       -5.05431       -12.83407        -0.16130
   C       -5.81730       -13.99433        -0.44833
   N       -5.19219       -15.14474        -0.95543
   O       -4.05590       -15.01552        -1.37823
   O       -5.78207       -16.21523        -0.91751
   C       -7.15256       -13.76840        -0.04721
   C       -8.34714       -14.45760        -0.28598
   C       -8.52939       -15.59783        -1.03072
   C       -9.75321       -16.26811        -1.12564
   S      -11.11379       -15.86767        -0.10162
   C      -12.03266       -17.17679        -0.67018
   C      -11.36460       -17.91474        -1.63035
   C      -10.06457       -17.39127        -1.91950
   C       -9.29564       -18.00097        -2.93870
   C       -8.08425       -17.44634        -3.41522
   N       -7.14654       -17.00032        -3.90055
   C       -9.77912       -19.13429        -3.57384
   C      -11.02476       -19.67790        -3.25034
   C      -11.83151       -19.07615        -2.30656
   C      -13.11042       -19.58981        -2.00334
   N      -14.15167       -19.99821        -1.75162
   H       -1.21665         2.25719        -5.09529
   H       -5.64779         1.12955        -7.16445
   H       -5.93747        -1.21357        -6.46622
   H       -0.84858        -4.83565        -1.59750
   H       -3.41053        -4.43179        -1.06582
   H       -3.77439         0.18018        -2.37638
   H       -6.10914         0.80956        -1.32860
   H       -6.91244        -4.01434        -0.84108
   H       -4.86110        -4.60441        -3.04255
   H       -4.36604        -6.19026        -4.44539
   H       -3.35808        -7.19445        -6.32215
   H       -4.08673        -8.70634        -6.88717
   H       -2.63364        -8.75100        -5.90024
   H       -4.62692       -10.42458        -4.93027
   H       -6.00390       -10.62071        -2.91521
   H       -7.17947       -10.45520        -1.05072
   H       -8.29296        -8.33588         0.87569
   H      -10.63091       -11.74491         3.51304
   H       -9.15722       -13.53879         2.25303
   H       -5.55722       -10.92042         0.76593
   H       -3.99848       -12.75759        -0.34135
   H       -9.23596       -14.00609         0.13884
   H       -7.69227       -16.04592        -1.54445
   H      -13.01563       -17.36077        -0.28252
   H       -9.18283       -19.59703        -4.34565
   H      -11.36884       -20.56496        -3.76011
*
