# ORCA input file
# SCF done       -196.181876000285          0.000294248758
! CAM-B3LYP def2-SVP def2/J RIJCOSX Grid4 TightSCF
%maxcore 5000
%tddft
    Mode sTDDFT
    Ethresh 5.0
    maxcore 5000
end

%pal
  nprocs 6
  end
* xyz 0 1
   C        2.28949        -1.87947        -8.46862
   S        0.91476        -1.16391        -9.17833
   C        1.38111         0.38791        -8.56683
   C        0.56114         1.59818        -8.84033
   F       -0.67594         1.51520        -8.31754
   F        1.11957         2.70100        -8.31997
   F        0.39428         1.83458       -10.15207
   C        2.52772         0.33301        -7.83909
   C        3.06874        -0.98415        -7.77782
   C        4.29627        -1.26769        -7.07206
   C        5.40046        -1.98871        -7.46837
   N        5.59266        -2.74781        -8.63845
   O        6.74118        -3.01655        -8.94044
   O        4.61680        -3.09231        -9.28423
   C        6.47815        -1.77277        -6.52365
   C        6.05802        -0.90819        -5.57402
   C        4.68004        -0.57589        -5.83223
   C        3.81953         0.09822        -4.99283
   C        2.41083        -0.11843        -4.87515
   C        1.96398         0.53752        -3.77127
   C        3.04740         1.26114        -3.17077
   N        2.81011         2.04022        -2.02658
   O        3.75578         2.44543        -1.36327
   O        1.64728         2.25653        -1.73383
   C        4.21059         1.04786        -3.92408
   C        5.45256         1.70183        -3.99696
   C        5.99695         2.59146        -3.10509
   C        7.23104         3.21681        -3.34202
   N        7.81285         4.10333        -2.46237
   C        7.28189         4.50404        -1.17866
   C        7.54272         3.45325        -0.10374
   C        9.04148         4.57223        -2.92183
   O        9.73068         5.37353        -2.31173
   C        9.23056         3.91822        -4.20180
   C        8.10492         3.10347        -4.43616
   C        8.28931         2.44366        -5.71246
   O        7.59421         1.66805        -6.33670
   N        9.54600         2.89151        -6.15831
   C       10.06888         2.48078        -7.44033
   C        9.89011         3.56423        -8.50040
   C       10.11945         3.77413        -5.28044
   C       11.39494         4.35927        -5.47105
   C       11.88110         5.27425        -4.59205
   C       13.16177         5.92066        -4.62327
   C       14.11712         5.56510        -5.59638
   C       15.32611         6.20896        -5.62192
   C       15.62445         7.21789        -4.69524
   C       16.99956         7.70220        -4.97350
   O       17.63509         8.56064        -4.41823
   N       17.43929         6.95288        -6.05512
   C       16.50343         6.03353        -6.50585
   O       16.65883         5.27861        -7.43148
   C       18.76321         7.08717        -6.62579
   C       19.77553         6.22960        -5.87491
   C       14.71867         7.58582        -3.73335
   C       13.47058         6.94077        -3.67428
   C       12.53628         7.31182        -2.63568
   C       12.49097         8.51588        -2.03136
   C       11.53762         8.85318        -1.01973
   S       11.65616        10.39461        -0.22042
   C       10.27396        10.03003         0.73867
   C        9.76989        11.00300         1.74252
   F       10.67377        11.28219         2.70016
   F        9.43150        12.18715         1.19973
   F        8.67810        10.54628         2.37156
   C        9.75019         8.79696         0.45381
   C       10.46648         8.12780        -0.54556
   H        2.45352        -2.93168        -8.58334
   H        2.99221         1.19331        -7.39303
   H        7.43485        -2.25119        -6.60769
   H        6.60547        -0.61088        -4.70222
   H        1.83975        -0.79073        -5.48398
   H        0.96796         0.53531        -3.36975
   H        6.02393         1.48586        -4.88974
   H        5.48077         2.81587        -2.18491
   H        6.21126         4.69798        -1.27231
   H        7.78919         5.43642        -0.91659
   H        7.04406         2.51854        -0.34678
   H        7.16276         3.80770         0.84975
   H        8.61036         3.26868        -0.00802
   H        9.50186         1.59064        -7.72640
   H       11.12205         2.20675        -7.33508
   H        8.83434         3.79076        -8.62692
   H       10.28492         3.21458        -9.44989
   H       10.40914         4.47831        -8.22016
   H       11.95788         4.04601        -6.33679
   H       11.22138         5.54889        -3.78541
   H       13.91456         4.78794        -6.31515
   H       19.04206         8.14199        -6.56651
   H       18.69850         6.77644        -7.67108
   H       19.82660         6.53576        -4.83259
   H       20.75848         6.34633        -6.32184
   H       19.49117         5.18087        -5.92345
   H       14.98084         8.34056        -3.00939
   H       11.81328         6.57534        -2.32422
   H       13.17037         9.30872        -2.31250
   H        8.88274         8.40162         0.95103
   H       10.19608         7.15751        -0.91963
*
