# ORCA input file
# SCF done       -160.829968604164          0.000900484080
! CAM-B3LYP def2-SVP def2/J RIJCOSX Grid4 TightSCF
%maxcore 5000
%tddft
    Mode sTDDFT
    Ethresh 5.0
    maxcore 5000
end

%pal
  nprocs 6
  end
* xyz 0 1
   C       -8.16289        -0.31282         6.41460
   C       -7.01333        -0.84065         6.97445
   C       -6.82331        -2.20679         7.23483
   N       -6.62143        -3.31566         7.46373
   C       -5.91244        -0.05965         7.36474
   N       -4.98846         0.53861         7.69601
   C       -9.32267        -1.09217         5.96603
   C      -10.30995        -0.19646         5.49379
   C      -11.49416        -0.61061         4.94049
   C      -11.71404        -1.98847         4.83489
   C      -10.72670        -2.87807         5.31180
   C       -9.52920        -2.45475         5.88202
   S      -11.20865        -4.53583         5.08940
   C      -12.71195        -4.01001         4.37798
   C      -12.84384        -2.66659         4.29853
  Br      -13.98307        -5.28044         3.83973
   C       -9.80694         1.18569         5.63196
   O      -10.45126         2.20673         5.50368
   C       -8.39516         1.04688         6.06530
   C       -7.52195         2.14678         6.08557
   C       -7.61155         3.15537         5.14645
   C       -8.22693         2.97535         3.89760
   C       -8.74387         3.92109         3.01361
   C       -9.42282         3.37612         1.93868
   C       -9.41527         1.98183         1.92689
   S       -8.45521         1.36887         3.23890
   C      -10.15697         1.05776         1.17438
   C      -11.10905         1.25493         0.17561
   C      -11.74742         0.09321        -0.21138
   C      -11.31100        -1.04826         0.46461
   S      -10.05119        -0.62828         1.60082
   C      -11.77613        -2.36239         0.34804
   C      -11.25349        -3.41235         1.05972
   C      -11.71972        -4.72719         1.03232
   C      -11.18290        -5.81352         1.73735
   C      -11.87988        -6.98432         1.57764
   C      -12.99557        -6.86168         0.73551
   S      -13.12467        -5.22760         0.12858
   C      -13.93031        -7.83572         0.41098
   C      -13.99831        -9.16171         0.88477
   C      -15.06006        -9.86524         0.40454
   C      -15.89778        -9.14121        -0.48924
   S      -15.25025        -7.51492        -0.68104
   C      -17.03301        -9.63997        -1.06122
   C      -17.95284        -9.01803        -1.96435
   C      -17.72576        -7.81130        -2.62902
   C      -18.69358        -7.28417        -3.48307
   C      -19.87452        -8.01570        -3.65631
   N      -20.09303        -9.16266        -3.04069
   C      -19.18478        -9.65078        -2.22983
   N      -18.38753        -6.09420        -4.12042
   C      -19.12011        -5.26697        -4.90857
   S      -20.82752        -5.42094        -5.14626
   C      -20.81849        -3.98017        -6.11857
   N      -22.02837        -3.55980        -6.66617
   O      -22.02422        -2.55016        -7.34935
   O      -23.01170        -4.23942        -6.41563
   C      -19.57302        -3.42562        -6.24393
   C      -18.58205        -4.14642        -5.56017
   C      -17.17226        -3.80229        -5.54958
   C      -16.66225        -2.65266        -5.97674
   H      -12.22322         0.10205         4.58780
   H       -8.80801        -3.17556         6.22986
   H      -13.70482        -2.16997         3.88956
   H       -6.77254         2.22178         6.86234
   H       -7.15314         4.11479         5.34258
   H       -8.68570         4.97674         3.21133
   H       -9.93927         3.95936         1.19708
   H      -11.32575         2.22673        -0.23001
   H      -12.52317         0.05304        -0.95564
   H      -12.59625        -2.54161        -0.33539
   H      -10.40987        -3.22017         1.71226
   H      -10.30524        -5.71163         2.35098
   H      -11.61666        -7.91140         2.05252
   H      -13.27447        -9.55577         1.57440
   H      -15.27770       -10.88638         0.66193
   H      -17.29453       -10.64923        -0.76773
   H      -16.79008        -7.28645        -2.50734
   H      -20.66289        -7.69370        -4.31826
   H      -19.43369       -10.58979        -1.75458
   H      -17.44487        -5.76776        -3.94020
   H      -19.39905        -2.54060        -6.82687
   H      -16.49538        -4.56197        -5.17799
   H      -17.27445        -1.85480        -6.35656
   H      -15.60199        -2.47241        -5.95610
*
