# ORCA input file
# SCF done       -159.535359128101          0.000709195582
! CAM-B3LYP def2-SVP def2/J RIJCOSX Grid4 TightSCF
%maxcore 5000
%tddft
    Mode sTDDFT
    Ethresh 5.0
    maxcore 5000
end

%pal
  nprocs 6
  end
* xyz 0 1
   C      -11.20080         4.34805        -6.04119
   C      -12.20644         3.46081        -6.34495
   C      -12.88881         3.43215        -7.57438
   N      -13.47672         3.35829        -8.55880
   C      -12.62095         2.43229        -5.47909
   N      -12.97121         1.56931        -4.80622
   C      -10.68776         5.39261        -6.91451
   C       -9.59014         6.02970        -6.27904
   C       -8.94424         7.11327        -6.82282
   C       -9.41024         7.60225        -8.04707
   C      -10.47464         6.93180        -8.69533
   C      -11.11764         5.82614        -8.15492
   S      -10.90688         7.71627       -10.18333
   C       -9.71505         8.95395        -9.88380
   C       -8.99859         8.76675        -8.75065
  Br       -9.58346        10.40644       -11.06112
   C       -9.36438         5.38448        -4.98345
   O       -8.47401         5.63134        -4.17302
   C      -10.43907         4.40650        -4.81579
   C      -10.66455         3.78166        -3.61327
   N       -9.82736         3.96927        -2.58161
   C       -9.96495         3.49897        -1.31472
   S      -11.38376         2.62980        -0.81365
   C      -10.65605         2.37645         0.74041
   N      -11.39070         1.67613         1.69986
   O      -10.86934         1.48551         2.78505
   O      -12.50840         1.30733         1.37684
   C       -9.39963         2.91623         0.85111
   C       -8.99124         3.58544        -0.31261
   C       -7.68327         4.18688        -0.48866
   C       -7.43038         5.32902        -1.15070
   C       -6.10963         5.71261        -1.55455
   C       -5.80815         6.75822        -2.34513
   C       -6.77806         7.82443        -2.73290
   C       -4.49103         6.73407        -3.08469
   N       -4.56932         5.66706        -4.07413
   C       -5.27254         5.79920        -5.22496
   C       -5.97306         4.77264        -5.78591
   C       -6.61609         4.78140        -7.03325
   C       -7.66483         3.92641        -7.42719
   C       -8.30997         2.88984        -6.73357
   C       -9.34705         2.22781        -7.33632
   C       -9.77429         2.57740        -8.62912
   C       -9.16698         3.59190        -9.32650
   C       -8.09617         4.28080        -8.74536
   C       -7.32041         5.37581        -9.22430
   C       -6.28627         5.60754        -8.20046
   C       -5.07309         6.13570        -8.39796
   C       -7.55441         5.98128       -10.44395
   C       -7.10885         7.16261       -11.02594
   C       -7.50293         7.58969       -12.30849
   C       -7.04892         8.82808       -12.67021
   C       -6.27738         9.45772       -11.67661
   S       -6.11018         8.40254       -10.28900
   C       -5.72050        10.72195       -11.69478
   C       -5.78312        11.67695       -12.73816
   C       -5.15412        12.84593       -12.46429
   C       -4.54174        12.89951       -11.17178
   S       -4.82651        11.36633       -10.33361
   C       -3.85322        13.91268       -10.62340
   H       -8.12000         7.58808        -6.31420
   H      -11.93779         5.36306        -8.67719
   H       -8.22172         9.42929        -8.41533
   H      -11.52470         3.14740        -3.44327
   H       -9.00367         4.55177        -2.79957
   H       -8.81438         2.84118         1.74965
   H       -6.86203         3.62728        -0.05815
   H       -8.24402         5.95345        -1.48849
   H       -5.32367         5.00946        -1.30124
   H       -7.45100         8.05980        -1.91305
   H       -7.37760         7.48168        -3.57684
   H       -6.25501         8.73226        -3.02531
   H       -3.65286         6.51264        -2.41905
   H       -4.29968         7.67527        -3.60151
   H       -4.64520         4.74854        -3.65256
   H       -5.23958         6.77830        -5.68117
   H       -6.09838         3.87727        -5.18798
   H       -7.98592         2.61537        -5.74001
   H       -9.84877         1.42242        -6.81898
   H      -10.59793         2.03760        -9.07203
   H       -9.51214         3.84439       -10.31809
   H       -4.78263         6.57725        -9.33285
   H       -4.31487         6.08476        -7.63522
   H       -8.28283         5.46770       -11.06355
   H       -8.12289         6.97266       -12.93601
   H       -7.27161         9.30305       -13.60788
   H       -6.29781        11.46701       -13.65834
   H       -5.09824        13.68584       -13.13329
   H       -3.70451        14.82979       -11.16503
   H       -3.43285        13.84359        -9.63710
*
