# ORCA input file
# SCF done       -182.963715353798          0.000487577165
! CAM-B3LYP def2-SVP def2/J RIJCOSX Grid4 TightSCF
%maxcore 5000
%tddft
    Mode sTDDFT
    Ethresh 5.0
    maxcore 5000
end

%pal
  nprocs 6
  end
* xyz 0 1
   C      -14.28556        18.13796        -4.11305
   C      -14.28015        19.05268        -5.14127
   C      -15.08663        20.20725        -5.17597
   N      -15.72162        21.15942        -5.27239
   C      -13.47225        18.97154        -6.29033
   N      -12.83098        18.96177        -7.24523
   C      -15.06160        18.24434        -2.88722
   C      -14.76054        17.13470        -2.05681
   C      -15.33395        16.95217        -0.82301
   C      -16.24777        17.91506        -0.38080
   C      -16.54385        19.01956        -1.21504
   C      -15.96592        19.20253        -2.46448
   S      -17.70231        20.08443        -0.47660
   C      -17.77131        19.04552         0.92226
   C      -16.96872        17.95756         0.84332
  Br      -18.89800        19.49436         2.35275
   C      -13.79333        16.26812        -2.74553
   O      -13.40684        15.16632        -2.39028
   C      -13.48306        16.93310        -4.01599
   C      -12.71492        16.41659        -5.02606
   N      -11.78243        15.44291        -5.00251
   C      -10.97490        14.91803        -4.03254
   S      -10.93113        15.42727        -2.38667
   C       -9.66183        14.29594        -2.08161
   N       -9.14317        14.24340        -0.78715
   O       -8.25813        13.43871        -0.55598
   O       -9.61397        15.02628         0.02315
   C       -9.31921        13.54134        -3.17950
   C      -10.03507        13.91481        -4.32118
   C       -9.81014        13.32843        -5.63191
   C       -9.73802        14.01418        -6.78484
   C       -9.53903        13.38608        -8.06320
   C       -9.40451        14.03786        -9.22588
   C       -9.40970        15.53249        -9.35586
   C       -9.23655        13.30759       -10.54005
   N       -9.46898        11.88961       -10.50575
   C       -8.57263        10.95955       -10.09540
   C       -7.28748        11.19380        -9.71850
   C       -6.33491        10.21385        -9.36011
   C       -6.43502         8.84835        -9.30254
   C       -5.37259         7.97688        -8.94411
   C       -5.68133         6.65316        -8.96651
   C       -7.01844         6.38093        -9.33807
   S       -7.86530         7.88067        -9.65821
   C       -7.64009         5.15852        -9.45787
   C       -7.08644         3.87334        -9.24834
   C       -7.95648         2.85382        -9.46050
   C       -9.26912         3.25830        -9.84298
   S       -9.32252         5.01819        -9.94044
   C      -10.32228         2.41410       -10.02000
   C      -11.66095         2.76176       -10.40785
   C      -11.89116         3.85453       -11.20040
   S      -13.52500         4.09026       -11.65371
   C      -13.97512         2.68430       -10.73916
   C      -12.89427         2.05299       -10.10405
   C      -13.16067         0.91352        -9.29899
   C      -12.04313         0.29049        -8.50113
   C      -11.58398         1.22111        -7.37624
   C      -14.45258         0.40816        -9.20268
   C      -14.75718        -0.86056        -8.44609
   C      -14.96562        -0.61370        -6.95017
   C      -15.53291         1.06595        -9.83864
   C      -16.94213         0.75512        -9.87114
   C      -17.63422         1.62176       -10.65642
   S      -16.68094         2.86463       -11.37210
   C      -15.26694         2.20373       -10.61376
   C      -17.66289        -0.29537        -9.15038
   C      -18.55722        -1.08808        -9.72305
   H      -15.08194        16.09776        -0.21492
   H      -16.22607        20.05974        -3.06256
   H      -16.88729        17.21445         1.61541
   H      -12.86211        16.81655        -6.02197
   H      -11.56058        15.04526        -5.91207
   H       -8.56267        12.77865        -3.15141
   H       -9.64240        12.25924        -5.64073
   H       -9.78992        15.09519        -6.78023
   H       -9.50615        12.30519        -8.05093
   H       -8.76979        15.99609        -8.60876
   H      -10.41776        15.92777        -9.22838
   H       -9.05620        15.83094       -10.33936
   H       -8.22193        13.48654       -10.91487
   H       -9.93014        13.74397       -11.26740
   H      -10.42870        11.59497       -10.58154
   H       -8.95596         9.95120       -10.12018
   H       -6.93473        12.21397        -9.67349
   H       -5.35966        10.59997        -9.08855
   H       -4.40342         8.36614        -8.68416
   H       -4.98962         5.86562        -8.72700
   H       -6.06319         3.74268        -8.94403
   H       -7.71135         1.81222        -9.34704
   H      -10.09948         1.37039        -9.86645
   H      -11.15414         4.51674       -11.60855
   H      -11.20669         0.04398        -9.15522
   H      -12.36623        -0.64423        -8.05119
   H      -11.20968         2.16242        -7.76909
   H      -10.79170         0.74933        -6.79860
   H      -12.41522         1.44033        -6.70975
   H      -13.95980        -1.59182        -8.58873
   H      -15.65980        -1.30272        -8.86824
   H      -15.69856         0.17435        -6.79090
   H      -15.31776        -1.52138        -6.46420
   H      -14.03965        -0.30656        -6.47182
   H      -18.69290         1.61885       -10.82942
   H      -17.48177        -0.36289        -8.08648
   H      -18.75569        -1.04623       -10.78109
   H      -19.10885        -1.82027        -9.15865
*
