# ORCA input file
# SCF done       -176.004314689334          0.000735982035
! CAM-B3LYP def2-SVP def2/J RIJCOSX Grid4 TightSCF
%maxcore 5000
%tddft
    Mode sTDDFT
    Ethresh 5.0
    maxcore 5000
end

%pal
  nprocs 6
  end
* xyz 0 1
   C        2.08006       -10.46295        -9.32902
   C        1.68195       -10.35693       -10.63341
   F        2.17482       -11.19300       -11.55784
   C        0.75365        -9.37257       -11.02086
   F        0.37835        -9.28913       -12.30613
   C        0.23572        -8.50520       -10.09877
   C        0.62720        -8.58841        -8.74969
   C        1.56531        -9.58521        -8.35547
   C        1.97317        -9.68800        -7.00411
   C        1.46171        -8.81930        -6.07788
   C        0.52685        -7.82209        -6.48249
   C        0.11178        -7.70130        -7.77718
   C        0.15343        -7.02440        -5.30905
   O       -0.63239        -6.07501        -5.27414
   C        0.90048        -7.57486        -4.18138
   C        1.69719        -8.68522        -4.64179
   C        2.52372        -9.48290        -3.88833
   C        3.27024       -10.55892        -4.40568
   N        3.90399       -11.44340        -4.77378
   C        2.72159        -9.32793        -2.50270
   N        2.91355        -9.23446        -1.37403
   C        0.79723        -7.03669        -2.91563
   N       -0.00516        -5.98607        -2.71229
   C       -0.23351        -5.31501        -1.55935
   S        0.51485        -5.77574        -0.06114
   C       -0.32080        -4.47290         0.72398
   N       -0.11333        -4.29442         2.09341
   O       -0.70302        -3.37721         2.64074
   O        0.64722        -5.07551         2.64301
   C       -1.11769        -3.73991        -0.11689
   C       -1.08369        -4.20394        -1.44331
   C       -1.80725        -3.65441        -2.56161
   C       -2.62526        -2.58932        -2.50843
   C       -3.36040        -2.03508        -3.61982
   C       -3.84584        -2.67525        -4.69169
   C       -3.75476        -4.14881        -4.93469
   C       -4.59852        -1.93366        -5.78031
   N       -4.83776        -0.54023        -5.53621
   C       -4.01977         0.45288        -5.94006
   C       -4.14148         1.75103        -5.54960
   C       -3.32524         2.78424        -6.03747
   C       -3.42249         4.10044        -5.66057
   C       -2.64547         5.18568        -6.12579
   C       -2.97192         6.38917        -5.57351
   C       -4.02260         6.32353        -4.63505
   S       -4.59356         4.67912        -4.47834
   C       -4.57156         7.36171        -3.89964
   C       -4.20955         8.72415        -3.92474
   C       -4.93148         9.51211        -3.07679
   C       -5.90760         8.82074        -2.32425
   S       -5.86303         7.10875        -2.75148
   C       -6.79328         9.24136        -1.36187
   C       -7.04873        10.54257        -0.88001
   C       -6.61475        11.79835        -1.30733
   C       -7.17756        12.78849        -0.46270
   C       -7.06648        14.16006        -0.45884
   C       -7.75818        14.87122         0.53750
   C       -7.84601        16.22432         0.81359
   C       -8.68696        16.42007         1.95885
   C       -9.12064        15.18218         2.38841
   C       -8.56560        14.17877         1.53003
   C       -8.68460        12.81825         1.52812
   C       -7.99070        12.09951         0.52614
   C       -7.91311        10.75256         0.25720
   C       -8.98200        17.72089         2.51152
   C       -9.74160        17.95299         3.57871
   H        2.79222       -11.22333        -9.04901
   H       -0.47445        -7.75626       -10.41272
   H        2.68391       -10.45322        -6.73797
   H       -0.59824        -6.93872        -8.05941
   H        1.34426        -7.42467        -2.06722
   H       -0.49199        -5.67455        -3.57287
   H       -1.69283        -2.90392         0.23506
   H       -1.63722        -4.12647        -3.51571
   H       -2.73970        -2.05137        -1.57702
   H       -3.55305        -0.97280        -3.52822
   H       -3.77586        -4.69550        -3.99450
   H       -2.83233        -4.40670        -5.45494
   H       -4.58519        -4.48313        -5.55385
   H       -5.56636        -2.42683        -5.93338
   H       -4.03196        -2.02836        -6.71359
   H       -5.51387        -0.31596        -4.82063
   H       -3.25577         0.16354        -6.64882
   H       -4.90680         2.01772        -4.83234
   H       -2.56453         2.53339        -6.76523
   H       -1.86888         5.04383        -6.85688
   H       -2.48368         7.31626        -5.81458
   H       -3.42476         9.09052        -4.56248
   H       -4.76320        10.56574        -2.96150
   H       -7.37872         8.45922        -0.89326
   H       -5.98757        12.01597        -2.14949
   H       -6.46755        14.68304        -1.19114
   H       -7.36570        17.01714         0.26747
   H       -9.76523        14.97924         3.22279
   H       -9.28328        12.29367         2.25979
   H       -8.39940         9.96184         0.80076
   H       -8.52846        18.55430         1.98881
   H      -10.21031        17.15637         4.13039
   H       -9.91957        18.95163         3.93818
*
