# ORCA input file
# SCF done       -202.436739663356          0.000715429558
! CAM-B3LYP def2-SVP def2/J RIJCOSX Grid4 TightSCF
%maxcore 5000
%tddft
    Mode sTDDFT
    Ethresh 5.0
    maxcore 5000
end

%pal
  nprocs 6
  end
* xyz 0 1
   C       -3.69944       -11.78072       -13.15202
   C       -2.66326       -10.97317       -12.88663
   C       -2.00727       -10.06253       -13.78011
   C       -0.98507        -9.37422       -13.22462
   C       -0.74731        -9.67852       -11.85565
   S       -1.88547       -10.88794       -11.29762
   C        0.21406        -9.13454       -11.03516
   C        1.18038        -8.15341       -11.36498
   C        1.99088        -7.80757       -10.32907
   C        1.71845        -8.49052        -9.11821
   S        0.38180        -9.60524        -9.35449
   C        2.36645        -8.32415        -7.91800
   C        2.05621        -9.01191        -6.73960
   C        2.69007        -8.78595        -5.54916
   C        2.38327        -9.44388        -4.34531
   O        1.43788       -10.41476        -4.26634
   C        1.33889       -10.82509        -2.97094
   C        2.26531       -10.11339        -2.20428
   C        2.93020        -9.23853        -3.07456
   O        3.90817        -8.36113        -2.76221
   O        2.56582       -10.21162        -0.88039
   C        0.41619       -11.84705        -2.65643
   C       -0.00671       -12.20318        -1.40960
   C       -0.89518       -13.27144        -1.16519
   C       -1.39460       -13.57029         0.06825
   C       -2.26247       -14.65057         0.32723
   C       -2.80908       -14.89573         1.55056
   C       -3.65610       -15.98477         1.84384
   O       -3.93896       -16.94692         0.93267
   C       -4.76739       -17.86781         1.50671
   C       -5.01880       -17.47631         2.82607
   C       -4.31117       -16.28390         3.04026
   O       -4.26365       -15.55753         4.17737
   O       -5.76079       -18.06559         3.79746
   C       -5.13788       -18.98332         0.72982
   C       -6.00478       -19.98447         1.06043
   C       -6.23745       -21.09679         0.22918
   C       -7.09845       -22.10387         0.55235
   C       -7.31209       -23.25248        -0.23097
   S       -6.42835       -23.53940        -1.70449
   C       -7.20132       -25.08564        -1.95202
   C       -8.14599       -25.32934        -0.95768
   C       -8.19257       -24.31135         0.02583
   C       -9.06075       -24.38592         1.19914
   O       -9.12415       -23.51787         2.05716
   C       -9.85955       -25.62804         1.30584
   C      -10.60904       -25.84002         2.46041
   C      -11.37397       -26.98214         2.60433
   C      -11.40762       -27.92659         1.58841
   C      -10.67861       -27.72170         0.43205
   C       -9.89793       -26.57879         0.28039
   C       -9.14990       -26.40454        -0.98402
   O       -9.40408       -27.06816        -1.97088
   C       -6.73464       -25.87466        -3.03224
   C       -6.79522       -27.23198        -3.10838
   C       -6.29269       -27.93406        -4.22197
   C       -6.23439       -29.29990        -4.31131
   C       -5.81262       -30.07945        -5.45650
   C       -5.30518       -29.60537        -6.64119
   C       -4.91401       -30.42504        -7.71954
   N       -4.57495       -31.03406        -8.63245
   C       -5.08028       -28.24995        -6.95705
   N       -4.86120       -27.17509        -7.29886
   C       -6.01082       -31.48937        -5.13263
   C       -6.49903       -31.58812        -3.80749
   C       -6.62854       -30.23412        -3.22944
   O       -6.96010       -29.97383        -2.09210
   C       -6.78091       -32.79052        -3.20743
   C       -6.57631       -33.95604        -3.95330
   C       -6.09131       -33.84881        -5.27789
   C       -5.80267       -32.63192        -5.88329
   S       -5.91082       -35.41037        -6.02053
   C       -6.48184       -36.17392        -4.56051
   C       -6.79187       -35.30753        -3.56732
  Br       -6.61552       -38.04373        -4.48562
   H       -4.14279       -11.80030       -14.13185
   H       -4.11839       -12.42797       -12.40378
   H       -2.33319        -9.96496       -14.80040
   H       -0.38601        -8.65114       -13.74942
   H        1.24769        -7.73235       -12.35200
   H        2.77993        -7.07867       -10.39156
   H        3.16828        -7.59744        -7.88805
   H        1.26548        -9.74970        -6.77554
   H        3.47463        -8.04672        -5.47749
   H        4.08569        -8.43852        -1.81549
   H        2.13429       -10.98933        -0.50966
   H        0.00078       -12.35817        -3.51439
   H        0.30446       -11.63389        -0.54250
   H       -1.19002       -13.87681        -2.01212
   H       -1.12106       -12.94569         0.90981
   H       -2.50420       -15.31530        -0.49093
   H       -2.61515       -14.23560         2.38348
   H       -4.81208       -16.00147         4.83766
   H       -6.10011       -18.91259         3.48964
   H       -4.65399       -19.02380        -0.23729
   H       -6.55932       -19.96390         1.98915
   H       -5.68750       -21.15177        -0.70254
   H       -7.66907       -22.05470         1.46946
   H      -10.57436       -25.08853         3.23528
   H      -11.94710       -27.13668         3.50644
   H      -12.00522       -28.81920         1.69821
   H      -10.69294       -28.43950        -0.37461
   H       -6.21293       -25.33229        -3.81354
   H       -7.22900       -27.80739        -2.30676
   H       -5.95740       -27.34009        -5.06275
   H       -7.14888       -32.83036        -2.19411
   H       -5.43515       -32.60560        -6.89537
   H       -7.15761       -35.60645        -2.60192
*
