# ORCA input file
# SCF done       -149.896316786200          0.000398678754
! CAM-B3LYP def2-SVP def2/J RIJCOSX Grid4 TightSCF
%maxcore 5000
%tddft
    Mode sTDDFT
    Ethresh 5.0
    maxcore 5000
end

%pal
  nprocs 6
  end
* xyz 0 1
   C        7.83143       -14.77256        -5.37015
   C        8.47670       -13.66421        -4.98099
   C        9.89075       -13.47834        -4.82863
   C       10.25133       -12.24298        -4.41412
   C        9.16353       -11.35244        -4.20289
   S        7.64618       -12.15674        -4.56182
   C        9.21955       -10.04776        -3.77435
   C       10.36573        -9.28550        -3.44376
   C       10.08578        -8.02043        -3.03324
   C        8.70361        -7.70137        -3.01088
   S        7.76819        -9.08330        -3.55035
   C        8.17078        -6.50241        -2.60962
   C        6.81488        -6.14177        -2.55716
   S        5.53193        -7.19241        -3.08933
   C        6.28925        -4.94062        -2.07882
   O        7.04694        -3.91756        -1.57690
   C        4.88499        -4.85676        -2.14275
   N        4.14650        -3.79720        -1.65512
   N        4.66332        -2.49055        -1.57592
   C        4.30801        -6.01123        -2.68214
   C        2.94329        -6.27999        -2.89696
   C        2.47518        -7.42210        -3.46962
   C        1.11140        -7.71274        -3.68869
   S       -0.16291        -6.64186        -3.16926
   C        0.58003        -8.83066        -4.31564
   O        1.32831        -9.84283        -4.84572
   C       -0.83309        -8.84708        -4.37143
   N       -1.56853        -9.81460        -5.01814
   N       -1.09908       -11.12424        -5.22029
   C       -1.40273        -7.72209        -3.77082
   C       -2.76975        -7.43107        -3.60756
   C       -3.25471        -6.31503        -2.99961
   C       -4.62780        -6.05214        -2.79713
   S       -5.87185        -7.16534        -3.29466
   C       -5.19184        -4.93683        -2.19044
   O       -4.46300        -3.88748        -1.69881
   C       -6.60144        -4.96636        -2.11507
   N       -7.37914        -3.95989        -1.57320
   N       -6.89113        -2.64887        -1.40598
   C       -7.13878        -6.14526        -2.64709
   C       -8.46362        -6.60734        -2.72829
   C       -9.52848        -6.17215        -1.98256
   C      -10.85951        -6.60355        -2.10099
   C      -11.45016        -7.40839        -3.04760
   C      -12.82329        -7.76333        -3.05034
   C      -13.21099        -8.54491        -4.09343
   C      -12.16443        -8.86262        -4.99090
   S      -10.66771        -8.12700        -4.44739
   C      -12.22883        -9.62993        -6.13025
   C      -13.36820       -10.29020        -6.66380
   C      -13.13399       -10.97745        -7.80481
   C      -11.77816       -10.91443        -8.26742
   S      -10.82982        -9.92119        -7.14942
   C      -11.25486       -11.49020        -9.35923
   H        8.37655       -15.66717        -5.61430
   H        6.76054       -14.80529        -5.45032
   H       10.57446       -14.28221        -5.03636
   H       11.26766       -11.93251        -4.24715
   H       11.35879        -9.69170        -3.51506
   H       10.82930        -7.29953        -2.73948
   H        8.89408        -5.75717        -2.29350
   H        7.97376        -4.17964        -1.56679
   H        3.17590        -3.79060        -1.93962
   H        5.13684        -2.22157        -2.44051
   H        5.35440        -2.45674        -0.83065
   H        2.22618        -5.53089        -2.58814
   H        3.20226        -8.16609        -3.77630
   H        2.26517        -9.65076        -4.72486
   H       -2.56308        -9.79899        -4.83560
   H       -0.70517       -11.51772        -4.36377
   H       -0.35415       -11.10402        -5.91258
   H       -3.48226        -8.15471        -3.98115
   H       -2.53926        -5.58385        -2.63915
   H       -3.52416        -4.07648        -1.80550
   H       -8.32880        -3.94689        -1.92697
   H       -6.39912        -2.32050        -2.23903
   H       -6.22031        -2.64603        -0.64187
   H       -8.61014        -7.43352        -3.41004
   H       -9.34245        -5.47447        -1.17789
   H      -11.54018        -6.23403        -1.34281
   H      -13.48458        -7.42254        -2.27240
   H      -14.21597        -8.89585        -4.24522
   H      -14.32640       -10.23162        -6.17806
   H      -13.87380       -11.53719        -8.34938
   H      -11.86807       -12.08530       -10.01264
   H      -10.21756       -11.37822        -9.61558
*
