# ORCA input file
# SCF done       -277.540415614392          0.000677420276
! CAM-B3LYP def2-SVP def2/J RIJCOSX Grid4 TightSCF
%maxcore 5000
%tddft
    Mode sTDDFT
    Ethresh 5.0
    maxcore 5000
end

%pal
  nprocs 6
  end
* xyz 0 1
   C        2.20550        -1.74732        -3.56244
   C        3.09436        -0.70783        -3.78294
   C        3.38179        -0.34538        -5.10040
   C        4.29027         0.71404        -5.34687
   N        5.02545         1.56996        -5.54014
   C        2.78814        -1.01181        -6.18961
   C        3.10228        -0.62230        -7.51384
   N        3.34423        -0.32304        -8.59231
   C        1.89188        -2.05742        -5.96380
   C        1.61786        -2.40587        -4.65868
   C        0.71722        -3.47158        -4.16791
   O        0.05744        -4.21807        -4.86123
   C        0.80391        -3.42686        -2.70032
   C        1.71107        -2.35671        -2.32613
   C        2.05917        -1.95748        -1.06265
   C        2.95080        -0.89843        -0.78354
   N        3.66766        -0.05185        -0.49045
   C        1.59067        -2.52307         0.14317
   N        1.25914        -2.91966         1.16850
   C        0.16047        -4.26607        -1.82933
   C       -0.72562        -5.33255        -2.07004
   C       -1.23424        -6.10003        -1.03404
   C       -2.09017        -7.12818        -1.44786
   C       -2.78835        -8.06067        -0.63863
   C       -2.57038        -8.12360         0.78900
   C       -1.38464        -8.02057         1.46274
   C       -1.53908        -8.14601         2.85890
   C       -2.82896        -8.33656         3.26832
   S       -3.88797        -8.37683         1.90170
   C       -3.35199        -8.48893         4.64819
  Cl       -0.20325        -8.06683         3.94213
   C       -3.65997        -8.91095        -1.30010
   C       -3.84207        -8.90541        -2.70993
   C       -3.14700        -7.97889        -3.51443
   C       -2.27062        -7.11720        -2.85777
   S       -1.32463        -5.87619        -3.62360
   C       -3.34904        -7.88096        -4.94473
   C       -2.43255        -7.56794        -5.90846
   C       -3.00122        -7.47661        -7.19694
   C       -4.34707        -7.70017        -7.23988
   S       -4.93699        -8.04936        -5.65145
   C       -5.26079        -7.67196        -8.40910
  Cl       -2.06044        -7.10764        -8.58940
   C       -4.71117        -9.93750        -3.12614
   C       -5.20157       -10.69375        -2.09744
   S       -4.60768       -10.16266        -0.54036
   C       -6.07575       -11.80966        -2.18846
   C       -6.63613       -12.53005        -1.15210
   C       -7.43157       -13.57881        -1.61657
   C       -7.46618       -13.65616        -3.01815
   S       -6.53831       -12.43378        -3.76412
   C       -8.27489       -14.76083        -3.39066
   C       -8.76096       -15.37524        -2.22528
   C       -8.24821       -14.65282        -1.07080
   C       -8.47742       -14.92801         0.24449
   C       -7.91404       -14.15425         1.28173
   N       -7.45598       -13.52943         2.12688
   C       -9.29034       -16.00666         0.65428
   N       -9.94823       -16.88431         0.98745
   C       -9.56201       -16.48693        -2.49331
   C       -9.67745       -16.72487        -3.84826
   S       -8.79111       -15.55164        -4.81121
   C      -10.38449       -17.77678        -4.49107
   C      -10.40913       -18.06647        -5.82717
   C      -11.18897       -19.19959        -6.14885
   C      -11.40798       -19.75897        -7.42526
   C      -10.75545       -19.22009        -8.60163
   C       -9.45628       -18.81766        -8.72833
   C       -9.15677       -18.34845       -10.02526
   C      -10.20962       -18.37986       -10.89345
   S      -11.61278       -19.01508       -10.10394
   C      -10.25073       -17.97083       -12.31960
  Cl       -7.58728       -17.78427       -10.45706
   C      -12.25421       -20.85877        -7.48007
   C      -12.83334       -21.44878        -6.32368
   C      -12.65162       -20.86403        -5.04600
   C      -11.81583       -19.75380        -5.00229
   S      -11.36471       -18.88550        -3.55822
   C      -13.37288       -21.31037        -3.87424
   C      -13.91103       -20.51538        -2.89808
   C      -14.62924       -21.23923        -1.92506
   C      -14.64457       -22.59135        -2.12039
   S      -13.74594       -22.98410        -3.54427
   C      -15.34488       -23.64012        -1.34427
  Cl      -15.42691       -20.47078        -0.61064
   C      -13.60814       -22.57166        -6.65019
   C      -13.68415       -22.83897        -7.99696
   S      -12.71201       -21.71001        -8.92406
   C      -14.36267       -23.88423        -8.65676
   C      -15.26066       -24.78926        -8.16457
   C      -15.48326       -26.04047        -8.93734
   O      -15.17191       -26.25812       -10.08323
   C      -16.11332       -26.97985        -7.97860
   C      -16.42142       -28.31155        -8.15538
   C      -16.97911       -29.00667        -7.08031
   C      -17.20893       -28.34995        -5.85637
   C      -16.90460       -26.99694        -5.69265
   C      -16.35807       -26.31113        -6.76317
   C      -15.98033       -24.90430        -6.91621
   C      -16.44896       -23.88640        -6.12481
   C      -16.35281       -22.52305        -6.47536
   N      -16.32777       -21.40754        -6.74161
   C      -17.09377       -24.07609        -4.88775
   N      -17.56362       -24.17160        -3.84406
   C      -17.75737       -29.07352        -4.76840
   N      -18.19607       -29.64746        -3.88035
   C      -17.30943       -30.37638        -7.21846
   N      -17.56960       -31.48406        -7.34703
   H        3.57101        -0.17237        -2.97771
   H        1.42655        -2.58024        -6.78560
   H        0.35430        -4.11400        -0.77437
   H       -1.00268        -5.89203        -0.00490
   H       -0.42786        -7.91204         0.98647
   H       -2.52475        -8.60943         5.34318
   H       -4.00734        -9.35553         4.71593
   H       -3.92743        -7.60982         4.93912
   H       -1.38259        -7.43509        -5.72760
   H       -4.68766        -7.49457        -9.31555
   H       -6.00062        -6.87923        -8.29885
   H       -5.79441        -8.61688        -8.50395
   H       -4.96013       -10.13624        -4.15236
   H       -6.46258       -12.28814        -0.11894
   H      -10.03729       -17.10633        -1.75399
   H       -9.89366       -17.47036        -6.55779
   H       -8.72132       -18.89493        -7.94861
   H       -9.33788       -17.43911       -12.57651
   H      -11.10686       -17.32595       -12.50972
   H      -10.33963       -18.84488       -12.96511
   H      -13.85134       -19.44329        -2.89193
   H      -15.61313       -23.25666        -0.36314
   H      -14.72044       -24.52419        -1.23116
   H      -16.25949       -23.93548        -1.86493
   H      -14.05001       -23.21020        -5.91171
   H      -14.07710       -24.05447        -9.69049
   H      -16.23555       -28.80312        -9.09818
   H      -17.09081       -26.52601        -4.74037
*
