# ORCA input file
# SCF done       -243.843461269860          0.000630475887
! CAM-B3LYP def2-SVP def2/J RIJCOSX Grid4 TightSCF
%maxcore 5000
%tddft
    Mode sTDDFT
    Ethresh 5.0
    maxcore 5000
end

%pal
  nprocs 6
  end
* xyz 0 1
   C       -2.60704         1.16381         0.37458
   C       -1.65453         0.56194        -0.40152
   C       -1.56228        -0.83144        -0.46777
   C       -2.41317        -1.66153         0.23786
   C       -3.42879        -1.05596         1.03909
   N       -4.32339        -1.80535         1.71138
   C       -5.22877        -1.19604         2.42804
   C       -5.28722         0.20863         2.51252
   N       -4.45209         0.96740         1.85899
   C       -3.50973         0.36583         1.10330
   C       -2.28409        -3.09693         0.14468
   C       -2.84753        -4.05194         0.93446
   C       -2.54696        -5.37870         0.54268
   C       -3.02731        -6.57427         1.11482
   C       -3.99713        -6.54271         2.18999
   C       -5.06303        -5.70026         2.33058
   C       -5.78973        -5.93814         3.51661
   C       -5.29975        -6.95027         4.28905
   S       -3.90302        -7.64508         3.53703
   C       -5.80641        -7.46229         5.58715
  Cl       -7.17750        -5.00907         3.93965
   C       -2.54290        -7.75651         0.57060
   C       -1.65197        -7.79950        -0.53193
   C       -1.20937        -6.60342        -1.13576
   C       -1.66511        -5.41850        -0.56388
   S       -1.29316        -3.81166        -1.11841
   C       -0.35190        -6.58925        -2.30229
   C        0.65355        -5.71118        -2.59330
   C        1.24938        -5.95765        -3.84847
   C        0.70941        -7.00520        -4.53685
   S       -0.56651        -7.72058        -3.61362
   C        1.08268        -7.54095        -5.86948
  Cl        2.55123        -5.00331        -4.44792
   C       -1.31934        -9.12699        -0.88673
   C       -1.95106       -10.07368        -0.12787
   S       -2.97870        -9.35898         1.09517
   C       -1.85863       -11.48604        -0.26596
   C       -1.10728       -12.18867        -1.19038
   C       -1.28783       -13.56610        -1.06902
   C       -2.18319       -13.91224        -0.04286
   S       -2.79513       -12.54399         0.77372
   C       -2.31655       -15.32371        -0.01893
   C       -1.50628       -15.86982        -1.03044
   C       -0.82724       -14.78359        -1.71825
   C        0.05258       -14.88202        -2.75643
   C        0.64012       -13.74538        -3.34994
   N        1.11717       -12.82134        -3.83340
   C        0.43280       -16.12569        -3.30279
   N        0.74672       -17.13509        -3.74705
   C       -1.59798       -17.26066        -1.10732
   C       -2.49079       -17.77564        -0.18787
   S       -3.18823       -16.51585         0.83089
   C       -2.80068       -19.14959         0.03709
   C       -1.95480       -20.20791        -0.13623
   C       -2.59463       -21.39001         0.38804
   C       -2.03372       -22.67322         0.36336
   N       -1.56948       -23.72323         0.35425
   C       -3.81487       -21.05058         0.92219
   C       -4.03158       -19.65950         0.67523
   C       -5.22663       -18.98379         0.77977
   C       -6.38628       -19.30541         1.64152
   C       -7.43582       -18.53821         1.21269
   C       -6.99238       -17.71683         0.11770
   C       -5.65553       -17.94847        -0.10771
   C       -7.80467       -16.82824        -0.59759
   N       -8.46825       -16.09175        -1.17691
   C       -6.41173       -20.11220         2.81200
   C       -5.34783       -20.55160         3.52354
   C       -5.45607       -21.36710         4.68296
   C       -4.42413       -21.92954         5.38549
   C       -4.83900       -22.71620         6.48544
   C       -4.03574       -23.42548         7.40128
   C       -2.59040       -23.36710         7.32693
   C       -1.80347       -22.27063         7.11781
   C       -0.42832       -22.58630         7.09020
   C       -0.14916       -23.91044         7.26837
   S       -1.61558       -24.80181         7.48927
   C        1.17039       -24.59007         7.27489
  Cl        0.78499       -21.38657         6.85089
   C       -4.70461       -24.16878         8.36817
   C       -6.11414       -24.19320         8.49450
   C       -6.91686       -23.46280         7.59831
   C       -6.25089       -22.76020         6.60014
   S       -7.01379       -21.80228         5.36228
   C       -8.36273       -23.41086         7.70222
   C       -9.27757       -23.43455         6.68991
   C      -10.60518       -23.29286         7.14978
   C      -10.72383       -23.14724         8.50068
   S       -9.15848       -23.19774         9.23892
   C      -11.95167       -22.96679         9.31548
  Cl      -11.95249       -23.30206         6.07696
   C       -6.52670       -25.02850         9.57218
   C       -5.49006       -25.58218        10.23488
   S       -3.94617       -25.13862         9.60179
   H       -2.69752         2.23548         0.45034
   H       -0.95877         1.15977        -0.97072
   H       -0.79615        -1.27683        -1.08619
   H       -5.93559        -1.82586         2.95185
   H       -6.03304         0.70811         3.11594
   H       -3.44977        -3.80179         1.78534
   H       -5.35060        -4.96274         1.60482
   H       -6.67979        -6.89102         5.89191
   H       -5.04141        -7.37801         6.35828
   H       -6.08234        -8.51291         5.50264
   H        0.99141        -4.93827        -1.92876
   H        1.93905        -6.99510        -6.25721
   H        0.25356        -7.44111        -6.56979
   H        1.33586        -8.59819        -5.79967
   H       -0.63274        -9.37800        -1.67220
   H       -0.47185       -11.71415        -1.91434
   H       -1.07585       -17.87534        -1.81750
   H       -0.96433       -20.18602        -0.54909
   H       -4.54075       -21.73168         1.32207
   H       -8.42449       -18.51083         1.63089
   H       -5.08344       -17.54931        -0.92346
   H       -7.40271       -20.33609         3.19110
   H       -4.34021       -20.28738         3.23393
   H       -3.39582       -21.80895         5.09728
   H       -2.17884       -21.26759         7.03323
   H        1.96541       -23.85030         7.32642
   H        1.30144       -25.17952         6.36712
   H        1.25027       -25.26295         8.12657
   H       -9.03022       -23.58225         5.65532
   H      -12.82581       -22.99925         8.67042
   H      -11.93111       -22.00882         9.83426
   H      -12.03490       -23.75200        10.06578
   H       -7.55420       -25.20903         9.82687
   H       -5.52790       -26.24691        11.07552
*
