# ORCA input file
# SCF done       -154.316044493561          0.000657537632
! CAM-B3LYP def2-SVP def2/J RIJCOSX Grid4 TightSCF
%maxcore 5000
%tddft
    Mode sTDDFT
    Ethresh 5.0
    maxcore 5000
end

%pal
  nprocs 6
  end
* xyz 0 1
   C        0.47292         2.28720         0.79751
   C       -0.85815         2.46100         0.53705
   F       -1.73814         2.44424         1.55205
   C       -1.35117         2.65777        -0.76081
   C       -0.47165         2.67816        -1.80688
   C        0.91195         2.50453        -1.59562
   C        1.39396         2.30649        -0.26792
   C        2.77740         2.13689        -0.02987
   C        3.64919         2.16530        -1.08573
   C        3.15931         2.34929        -2.41214
   C        1.82864         2.51908        -2.66938
   C        4.28360         2.30173        -3.36119
   O        4.26743         2.47173        -4.55652
   C        5.47401         1.92670        -2.53533
   C        5.10348         2.05391        -1.13527
   C        5.95428         2.25659        -0.08396
   C        7.35394         2.37370        -0.21477
   N        8.48993         2.52523        -0.27169
   C        5.52325         2.45669         1.24508
   N        5.22110         2.61341         2.34055
   C        6.57810         1.45011        -3.14968
   C        7.68358         0.73857        -2.56770
   C        7.53483        -0.20764        -1.54198
   N        8.54863        -0.85480        -1.02271
   C        9.76036        -0.62283        -1.52741
   N       10.00401         0.20513        -2.54263
   C        8.99738         0.87887        -3.04147
   C       10.88529        -1.35262        -0.96546
   C       10.73616        -2.28003         0.07170
   N       11.74856        -2.97715         0.53801
   C       12.94293        -2.77516        -0.01944
   N       13.20097        -1.88167        -0.97529
   C       12.19128        -1.17898        -1.43772
   C       14.04880        -3.60707         0.43428
   C       13.89259        -4.59320         1.41451
   N       14.88200        -5.37845         1.78031
   C       16.04546        -5.23324         1.14845
   N       16.31375        -4.29292         0.23824
   C       15.33471        -3.48462        -0.10246
   C       17.10913        -6.14099         1.53334
   C       18.18466        -6.48938         0.80312
   C       19.36730        -7.13331         1.46441
   O       19.38462        -7.67165         2.54339
   C       20.48952        -6.90179         0.53790
   C       21.81813        -7.16412         0.71999
   C       22.73326        -6.83033        -0.30202
   C       22.25354        -6.21739        -1.49740
   C       23.17440        -5.87752        -2.50794
   C       24.50218        -6.14572        -2.32401
   C       24.99272        -6.75098        -1.15804
   C       24.11399        -7.08522        -0.16604
   F       25.38237        -5.82301        -3.28730
   C       20.87284        -5.96319        -1.66261
   C       20.00164        -6.30935        -0.66416
   C       18.54930        -6.20977        -0.57921
   C       17.69432        -6.11510        -1.63756
   C       16.29521        -6.28507        -1.54231
   N       15.16465        -6.47947        -1.54774
   C       18.11936        -5.93063        -2.97103
   N       18.41874        -5.76871        -4.06670
   H        0.81667         2.14143         1.80965
   H       -2.41190         2.78844        -0.90492
   H       -0.82720         2.82797        -2.81511
   H        3.11340         1.97867         0.98274
   H        1.48072         2.66243        -3.68134
   H        6.59885         1.56620        -4.22933
   H        6.55469        -0.46963        -1.16034
   H        9.23302         1.57454        -3.83628
   H        9.76907        -2.45846         0.52210
   H       12.40968        -0.45505        -2.21086
   H       12.94169        -4.73760         1.90853
   H       15.56119        -2.71925        -0.83225
   H       17.03905        -6.53578         2.53995
   H       22.16608        -7.62025         1.63470
   H       22.83186        -5.41419        -3.41993
   H       26.05103        -6.93867        -1.06993
   H       24.46792        -7.55182         0.74084
   H       20.53627        -5.49077        -2.57188
*
