# ORCA input file
# SCF done       -261.489811639684          0.000412713363
! CAM-B3LYP def2-SVP def2/J RIJCOSX Grid4 TightSCF
%maxcore 5000
%tddft
    Mode sTDDFT
    Ethresh 5.0
    maxcore 5000
end

%pal
  nprocs 6
  end
* xyz 0 1
   C       18.10423       -10.22540         2.73281
   C       17.59525       -11.46999         2.52466
   C       16.21378       -11.55271         2.79092
   C       15.71088       -10.32368         3.20666
   S       16.91463        -9.09564         3.26739
   C       14.31809       -10.28778         3.49613
   C       13.63312       -11.48918         3.32249
  Si       14.82944       -12.80913         2.75087
   C       15.02049       -14.19554         3.98455
   C       14.48500       -14.11445         5.27220
   C       14.63154       -15.14866         6.17772
   C       15.32145       -16.29386         5.81760
   C       15.86300       -16.39692         4.54689
   C       15.71317       -15.36066         3.64517
   C       14.48125       -13.45832         1.03645
   C       14.90427       -12.77239        -0.10507
   C       14.64121       -13.25616        -1.37278
   C       13.94424       -14.44223        -1.53204
   C       13.51241       -15.13870        -0.41560
   C       13.77819       -14.65109         0.84991
   C       12.27434       -11.34869         3.62596
   C       11.92415       -10.07729         4.02327
   S       13.30491        -9.00466         4.02928
   C       10.63546        -9.59745         4.38748
   C       10.27302        -8.34811         4.78986
   C        8.88913        -8.20784         5.05848
   C        8.16492        -9.40875         4.84861
   S        9.25802       -10.68102         4.32811
   C        6.79479        -9.46636         5.04445
   O        5.95174       -10.52298         4.89045
   C        6.44605       -11.76420         4.45231
   C        6.16910        -8.27466         5.46013
   C        6.89380        -7.07577         5.67952
   C        8.26450        -7.01886         5.48308
   O        9.10838        -5.96291         5.64091
   C        8.60633        -4.71023         6.03716
   S        5.79762        -5.80258         6.19243
   C        4.41644        -6.87576         6.09072
   C        4.78052        -8.12658         5.69761
   C        3.11102        -6.39099         6.39342
   C        2.75834        -5.14753         6.82958
   C        1.36386        -4.99642         7.02550
   C        0.65829        -6.17253         6.71570
   S        1.72096        -7.44757         6.19935
   C       -0.72175        -6.28835         6.81048
   O       -1.22199        -7.51433         6.47946
   C       -2.52218        -7.64945         5.95485
   C       -1.41779        -5.15736         7.26593
   C       -0.70357        -3.95358         7.56527
   C        0.67282        -3.84397         7.45326
   O        1.47594        -2.77309         7.69617
   C        0.94304        -1.55684         8.15825
   S       -1.81719        -2.70246         8.10439
   C       -3.18278        -3.78250         7.96098
   C       -2.80898        -5.01329         7.51333
   C       -4.49044        -3.33850         8.29922
   C       -4.87550        -2.10998         8.78989
   C       -6.25047        -2.00017         9.02041
   C       -6.91589        -3.18308         8.69327
   S       -5.86135        -4.40983         8.10903
   C       -8.31839        -3.18261         8.89530
   C       -8.86128        -1.99690         9.39426
  Si       -7.48888        -0.75039         9.65546
   C       -7.26064        -0.33310        11.46033
   C       -7.42984        -1.30759        12.44857
   C       -7.26044        -1.00997        13.78700
   C       -6.91604         0.27492        14.17338
   C       -6.74226         1.25666        13.21257
   C       -6.91207         0.95410        11.87439
   C       -7.62284         0.77346         8.59071
   C       -8.59968         1.73666         8.85830
   C       -8.70400         2.88539         8.09781
   C       -7.82908         3.10196         7.04581
   C       -6.85402         2.16147         6.76046
   C       -6.75462         1.01260         7.52333
   C      -10.24389        -2.10440         9.56877
   C      -10.75576        -3.33553         9.21530
   S       -9.49925        -4.40942         8.64246
   C      -12.10317        -3.77947         9.27488
   C      -12.60974        -5.01360         8.92640
   C      -13.99152        -5.12763         9.10915
   C      -14.53757        -3.94679         9.60998
   S      -13.36432        -2.71218         9.85164
   C      -15.94259        -3.96025         9.82957
   C      -16.59566        -5.14831         9.51461
  Si      -15.35117        -6.39322         8.88309
   C      -15.59692        -6.88440         7.10070
   C      -14.92598        -6.23961         6.05891
   C      -15.11456        -6.61490         4.74181
   C      -15.98349        -7.64734         4.43197
   C      -16.66175        -8.30075         5.44772
   C      -16.46931        -7.92234         6.76265
   C      -15.18504        -7.87942         9.99951
   C      -15.53300        -7.81484        11.35155
   C      -15.40383        -8.91334        12.18008
   C      -14.92034       -10.10933        11.67610
   C      -14.56696       -10.19720        10.33998
   C      -14.69778        -9.09575         9.51533
   C      -17.97735        -5.04977         9.77355
   C      -18.34238        -3.83422        10.26405
   S      -17.00947        -2.75108        10.43091
   H       19.11480        -9.88961         2.60620
   H       18.18880       -12.30215         2.18945
   H       13.94229       -13.22520         5.55954
   H       14.20559       -15.06313         7.16709
   H       15.43598       -17.10365         6.52346
   H       16.40188       -17.28850         4.25952
   H       16.13451       -15.45042         2.65369
   H       15.45113       -11.84740         0.01173
   H       14.98078       -12.70852        -2.24023
   H       13.73913       -14.82290        -2.52207
   H       12.96833       -16.06499        -0.53323
   H       13.44168       -15.20288         1.71638
   H       11.55502       -12.14667         3.56026
   H       10.96699        -7.53421         4.89380
   H        5.57565       -12.41767         4.40382
   H        7.17211       -12.18289         5.15417
   H        6.89918       -11.69298         3.46009
   H        9.47456        -4.05330         6.07546
   H        8.14246        -4.75342         7.02614
   H        7.88640        -4.31534         5.31555
   H        4.08186        -8.93365         5.57534
   H        3.46505        -4.35777         7.00864
   H       -2.49397        -8.53824         5.32286
   H       -2.80858        -6.78621         5.34974
   H       -3.25833        -7.80980         6.74879
   H        0.45502        -1.66936         9.12998
   H        0.23827        -1.12293         7.44395
   H        1.80027        -0.89251         8.26340
   H       -3.53373        -5.79600         7.39492
   H       -4.16613        -1.32203         8.97625
   H       -7.70162        -2.31151        12.15375
   H       -7.39812        -1.77986        14.53254
   H       -6.78453         0.50999        15.21955
   H       -6.47413         2.26090        13.50802
   H       -6.77676         1.72632        11.13013
   H       -9.28337         1.57603         9.67994
   H       -9.46770         3.61542         8.32473
   H       -7.90763         4.00047         6.45121
   H       -6.16870         2.32518         5.94119
   H       -5.99056         0.28368         7.29415
   H      -10.86855        -1.31324         9.94533
   H      -11.98390        -5.80442         8.55036
   H      -14.24381        -5.43473         6.29274
   H      -14.58169        -6.10223         3.95387
   H      -16.13133        -7.94279         3.40341
   H      -17.34091        -9.10769         5.21227
   H      -16.99893        -8.43986         7.55025
   H      -15.91417        -6.88547        11.75080
   H      -15.68171        -8.83902        13.22169
   H      -14.82005       -10.96964        12.32176
   H      -14.18900       -11.12756         9.94078
   H      -14.42257        -9.17346         8.47287
   H      -18.67458        -5.85104         9.60347
   H      -19.32063        -3.49519        10.54346
*
