# ORCA input file
# SCF done       -300.047023221673          0.000568320365
! CAM-B3LYP def2-SVP def2/J RIJCOSX Grid4 TightSCF
%maxcore 5000
%tddft
    Mode sTDDFT
    Ethresh 5.0
    maxcore 5000
end

%pal
  nprocs 6
  end
* xyz 0 1
   C       -0.81238        -5.66418         0.41342
   C       -0.41284        -4.97118        -0.67100
   C        0.81258        -4.27047        -0.46501
   C        1.50665        -3.44265        -1.36486
   C        1.01530        -3.13587        -2.69432
   C        1.74023        -3.02315        -3.84621
   C        0.94966        -2.64944        -4.95338
   C       -0.37057        -2.45662        -4.66769
   S       -0.66048        -2.75775        -2.98979
   C       -1.46719        -2.07077        -5.59239
  Cl        1.60120        -2.44672        -6.53362
   C        2.70491        -2.89809        -0.91098
   C        3.21690        -3.11533         0.39146
   C        2.51181        -3.92794         1.29919
   C        1.32968        -4.49849         0.83196
   S        0.26958        -5.52964         1.75501
   C        2.95706        -4.15081         2.66029
   C        2.88958        -5.30428         3.38696
   C        3.35557        -5.14673         4.71059
   C        3.76976        -3.88478         5.01935
   S        3.59785        -2.85497         3.63747
   C        4.31035        -3.36720         6.30194
  Cl        3.38913        -6.45290         5.83254
   C        4.44888        -2.44317         0.59071
   C        4.85819        -1.71351        -0.48686
   S        3.73779        -1.83390        -1.82354
   C        6.04573        -0.92864        -0.61879
   C        7.02575        -0.75846         0.31723
   C        8.09403         0.07649        -0.11023
   C        7.86442         0.53747        -1.43299
   S        6.37397        -0.05907        -2.09809
   C        8.70032         1.36958        -2.16661
   O        8.22701         1.65527        -3.41069
   C        8.90521         2.53070        -4.27454
   C        9.88859         1.78326        -1.54030
   C       10.11904         1.32293        -0.21742
   C        9.27817         0.49833         0.51906
   O        9.74733         0.21824         1.76664
   C        9.03292        -0.60319         2.65344
   S       11.62334         1.90025         0.43590
   C       11.95846         2.75387        -1.05115
   C       10.96615         2.59990        -1.97749
   C       13.16428         3.50497        -1.20822
   C       13.57124         4.20688        -2.30617
   C       14.82883         4.83702        -2.14630
   C       15.52327         5.63360        -3.07919
   C       14.91141         6.00157        -4.33998
   C       13.61781         6.38164        -4.55589
   C       13.35108         6.66233        -5.91345
   C       14.42083         6.50295        -6.74406
   S       15.80663         5.99772        -5.83459
   C       14.49815         6.70603        -8.21297
  Cl       11.79265         7.16146        -6.45686
   C       16.79769         6.04812        -2.71289
   C       17.37200         5.77083        -1.44805
   C       16.64734         5.03572        -0.48927
   C       15.40034         4.55978        -0.88077
   S       14.33128         3.58751         0.09184
   C       17.19112         4.79683         0.83219
   C       17.87246         5.67083         1.62983
   C       18.26843         5.09262         2.85526
   C       17.90509         3.78652         3.00737
   S       17.03956         3.24469         1.60920
   C       18.16254         2.87469         4.15055
  Cl       19.13889         5.97908         4.04889
   C       18.68830         6.28680        -1.34290
   C       19.10895         6.94983        -2.45587
   S       17.88195         6.97913        -3.70844
   C       20.37425         7.56672        -2.68549
   C       20.82051         8.09198        -3.86230
   C       22.13488         8.62868        -3.79479
   C       22.66041         8.49185        -2.48330
   S       21.54911         7.70792        -1.39692
   C       23.91175         8.91684        -2.05618
   O       24.15169         8.66668        -0.73898
   C       25.35088         9.05916        -0.12276
   C       24.73635         9.52643        -3.01847
   C       24.21631         9.64664        -4.33341
   C       22.95951         9.23349        -4.75766
   O       22.71933         9.48284        -6.07364
   C       21.49698         9.14092        -6.67564
   S       25.33804        10.39393        -5.42976
   C       26.50551        10.56200        -4.14144
   C       26.04918        10.06891        -2.95256
   C       27.77845        11.16392        -4.39194
   C       28.71767        11.55158        -3.48226
   C       29.87843        12.11895        -4.06620
   C       31.01367        12.63976        -3.41754
   C       31.12299        12.72198        -1.97459
   C       32.22760        12.50473        -1.20299
   C       31.99353        12.74375         0.16893
   C       30.72732        13.15446         0.46472
   S       29.78254        13.23902        -0.98454
   C       30.14404        13.50583         1.78433
  Cl       33.22024        12.53038         1.35890
   C       32.03624        13.11041        -4.23836
   C       31.96300        13.11494        -5.65114
   C       30.81912        12.61617        -6.29860
   C       29.80884        12.11774        -5.48070
   S       28.29173        11.46781        -6.03571
   C       30.66440        12.62308        -7.74073
   C       30.11632        11.65009        -8.52529
   C       30.07216        12.00902        -9.89019
   C       30.56678        13.24962       -10.16598
   S       31.11573        14.00248        -8.70649
   C       30.66726        13.94437       -11.47437
  Cl       29.44308        10.95258       -11.09583
   C       33.14606        13.65741        -6.23523
   C       34.04658        14.06493        -5.31928
   S       33.53522        13.80963        -3.68775
   H       -1.68909        -6.27205         0.52170
   H       -0.95919        -4.95647        -1.59541
   H        2.79170        -3.22828        -3.92037
   H       -1.10162        -1.34664        -6.31869
   H       -2.29907        -1.63985        -5.04063
   H       -1.83054        -2.94232        -6.13966
   H        2.55254        -6.24537         2.99477
   H        4.22128        -4.13136         7.07002
   H        3.76510        -2.47889         6.61751
   H        5.36119        -3.09654         6.19661
   H        5.01461        -2.50774         1.50051
   H        6.96071        -1.23016         1.27763
   H        8.26889         2.61041        -5.15564
   H        9.87796         2.12824        -4.57291
   H        9.02616         3.52265        -3.82968
   H        9.64125        -0.64204         3.55686
   H        8.91580        -1.61649         2.25770
   H        8.05525        -0.17738         2.89827
   H       11.03031         3.06413        -2.94162
   H       13.00822         4.24938        -3.21924
   H       12.88941         6.50368        -3.77579
   H       14.79011         5.78329        -8.71348
   H       15.23853         7.46772        -8.45536
   H       13.52883         7.02189        -8.59096
   H       18.05296         6.69995         1.38029
   H       18.80611         2.04971         3.84555
   H       17.22933         2.45249         4.52061
   H       18.64946         3.42196         4.95389
   H       19.32263         6.14470        -0.48741
   H       20.19824         8.07117        -4.73670
   H       25.24547         8.76039         0.92004
   H       25.49302        10.14286        -0.17230
   H       26.21361         8.54426        -0.55613
   H       21.59123         9.46390        -7.71217
   H       20.65796         9.66769        -6.21161
   H       21.32364         8.06098        -6.65173
   H       26.66121        10.09473        -2.07269
   H       28.58486        11.43913        -2.42304
   H       33.16938        12.15579        -1.58293
   H       30.87062        13.30883         2.56860
   H       29.24487        12.92187         1.97656
   H       29.87130        14.56071         1.81426
   H       29.78357        10.69647        -8.16041
   H       30.32833        13.28125       -12.26639
   H       31.69606        14.24125       -11.67467
   H       30.05164        14.84370       -11.47970
   H       33.30842        13.72856        -7.29439
   H       35.01019        14.50291        -5.49106
*
