# ORCA input file
# SCF done       -229.495621930379          0.000196637116
! CAM-B3LYP def2-SVP def2/J RIJCOSX Grid4 TightSCF
%maxcore 5000
%tddft
    Mode sTDDFT
    Ethresh 5.0
    maxcore 5000
end

%pal
  nprocs 6
  end
* xyz 0 1
   C       -4.95847         3.42178        -2.63819
   C       -4.30861         3.19452        -1.47928
   C       -2.89921         3.05684        -1.64978
   C       -1.92760         2.77184        -0.67378
   C       -2.28079         2.68422         0.73085
   C       -3.08443         3.52548         1.44314
   C       -3.20494         3.14478         2.79794
   C       -2.50987         2.02049         3.13226
   S       -1.66940         1.40843         1.74569
   C       -2.41547         1.34156         4.44996
  Cl       -4.15537         4.04144         3.92211
   C       -0.62123         2.60563        -1.11805
   C       -0.24243         2.74725        -2.47616
   C       -1.21656         3.02113        -3.45544
   C       -2.52440         3.18117        -3.00748
   S       -3.91412         3.48553        -4.01551
   C       -0.86292         3.09204        -4.85896
   C       -0.02346         2.26713        -5.55033
   C        0.08380         2.61875        -6.91341
   C       -0.65652         3.70464        -7.27738
   S       -1.52200         4.31721        -5.90761
   C       -0.77857         4.34453        -8.61180
  Cl        1.07113         1.73344        -8.01375
   C        1.15770         2.61822        -2.64582
   C        1.82449         2.35570        -1.48450
   S        0.75550         2.26302        -0.10275
   C        3.21653         2.13926        -1.30631
   C        3.84943         1.75051        -0.14477
   O        3.19425         1.52757         1.02734
   C        3.99583         0.81242         1.94645
   C        5.40701         1.40861         2.02444
   C        6.27365         0.69919         3.05218
   O        6.05708         1.28987         0.76470
   C        5.24524         1.59114        -0.28284
   C        5.69677         1.84485        -1.56170
   S        4.37455         2.30771        -2.59693
   C        7.03911         1.75650        -2.03163
   C        8.01533         0.87958        -1.60295
   O        7.82501        -0.12214        -0.69951
   C        9.05250        -0.60628        -0.19130
   C       10.05944        -0.88201        -1.31724
   C       11.36815        -1.45514        -0.80032
   O       10.36248         0.33349        -1.99400
   C        9.25742         1.08764        -2.23476
   C        9.24924         2.12534        -3.14495
   S        7.67109         2.84488        -3.24241
   C       10.35724         2.56238        -3.90693
   C       10.41938         3.61964        -4.79211
   O        9.36003         4.42257        -5.09418
   C        9.59936         5.18040        -6.26545
   C       10.99892         5.81210        -6.25256
   C       11.25655         6.67484        -7.47632
   O       11.98915         4.78845        -6.23656
   C       11.69425         3.79044        -5.36469
   C       12.61846         2.85815        -4.93695
   S       11.89465         1.75515        -3.79518
   C       13.98053         2.77325        -5.32090
   C       14.89984         1.84218        -4.93349
   C       16.18544         2.05127        -5.48765
   C       17.34220         1.26637        -5.31754
   C       17.29288         0.03084        -4.56231
   C       16.31303        -0.91981        -4.57953
   C       16.57861        -1.99118        -3.69975
   C       17.74736        -1.87851        -3.00655
   S       18.55675        -0.41158        -3.44709
   C       18.33320        -2.80957        -2.00888
  Cl       15.49882        -3.32351        -3.52651
   C       18.50503         1.73286        -5.92265
   C       18.55267         2.90233        -6.71745
   C       17.38722         3.66374        -6.92215
   C       16.23040         3.21949        -6.28792
   S       14.66134         3.97868        -6.38958
   C       17.35907         4.85184        -7.75341
   C       16.66617         6.00666        -7.53179
   C       16.81210         6.94203        -8.57881
   C       17.60077         6.52297        -9.60886
   S       18.19120         4.92742        -9.28368
   C       17.96770         7.23990       -10.85656
  Cl       16.04499         8.48422        -8.54132
   C       19.87004         3.14694        -7.20629
   C       20.75656         2.20498        -6.82748
   S       20.06526         0.95948        -5.84765
   H       -6.01152         3.55854        -2.78796
   H       -4.80132         3.10032        -0.52936
   H       -3.54367         4.40683         1.03496
   H       -3.01887         1.87409         5.18091
   H       -1.38207         1.31670         4.79416
   H       -2.77024         0.31400         4.37861
   H        0.47023         1.41523        -5.12101
   H       -0.17703         3.79982        -9.33530
   H       -0.43743         5.37861        -8.57471
   H       -1.81673         4.34557        -8.94198
   H        1.66771         2.73640        -3.58400
   H        4.06789        -0.24000         1.63962
   H        3.48754         0.88138         2.90862
   H        5.31336         2.47871         2.27205
   H        6.33335        -0.35988         2.81584
   H        5.85750         0.82539         4.04715
   H        7.27634         1.11578         3.02658
   H        8.81503        -1.52379         0.34833
   H        9.48421         0.12793         0.50276
   H        9.59293        -1.57439        -2.03588
   H       11.79990        -0.78757        -0.05940
   H       12.06757        -1.55118        -1.62576
   H       11.20166        -2.43087        -0.35401
   H        8.82625         5.94872        -6.29032
   H        9.50723         4.53605        -7.15067
   H       11.09971         6.40830        -5.33171
   H       11.11062         6.09024        -8.38078
   H       12.28398         7.02702        -7.45705
   H       10.58331         7.52660        -7.48472
   H       14.65441         1.05098        -4.24977
   H       15.45308        -0.88557        -5.22210
   H       18.44746        -2.31669        -1.04393
   H       19.31771        -3.14584        -2.33199
   H       17.68506        -3.67433        -1.88934
   H       16.09642         6.20613        -6.64402
   H       17.61624         6.69373       -11.73148
   H       19.04947         7.34135       -10.93734
   H       17.51865         8.23004       -10.85485
   H       20.13508         3.99748        -7.80606
   H       21.80290         2.15473        -7.05664
*
