# ORCA input file
# SCF done       -274.039990850688          0.000587360272
! CAM-B3LYP def2-SVP def2/J RIJCOSX Grid4 TightSCF
%maxcore 5000
%tddft
    Mode sTDDFT
    Ethresh 5.0
    maxcore 5000
end

%pal
  nprocs 6
  end
* xyz 0 1
   C       -0.47161        -4.43476        -6.10717
   C        0.80080        -4.68960        -6.47320
   C        1.75215        -3.88568        -5.77923
   C        3.15207        -3.87856        -5.91483
   C        3.85168        -4.69702        -6.88624
   C        5.03706        -5.35539        -6.72871
   C        5.45849        -6.01155        -7.90573
   C        4.62042        -5.85767        -8.97085
   S        3.26248        -4.88499        -8.51689
   C        4.75875        -6.39091       -10.34970
  Cl        6.91215        -6.93132        -7.97374
   C        3.85469        -3.02293        -5.06920
   C        3.22116        -2.16553        -4.13748
   C        1.81543        -2.13748        -4.03544
   C        1.11996        -3.02675        -4.84690
   S       -0.61272        -3.21066        -4.89609
   C        1.16070        -1.20747        -3.13934
   C        1.49592         0.09539        -2.89907
   C        0.65864         0.70326        -1.94082
   C       -0.31658        -0.11153        -1.44310
   S       -0.21094        -1.67664        -2.17321
   C       -1.34508         0.19681        -0.41707
  Cl        0.86130         2.34077        -1.44586
   C        4.15734        -1.41713        -3.38856
   C        5.45722        -1.63926        -3.74663
   S        5.58144        -2.82846        -5.02969
   C        6.61783        -1.00857        -3.18122
   C        7.91721        -1.31095        -3.55713
   F        8.14579        -2.24832        -4.49189
   C        9.05232        -0.69183        -3.01322
   F       10.23654        -1.10940        -3.49037
   C        9.00364         0.29116        -2.03644
   C        7.68590         0.63697        -1.62107
   C        6.51896         0.00240        -2.18272
   N        5.39669         0.48720        -1.65588
   S        5.75894         1.61537        -0.57321
   N        7.35621         1.55142        -0.71202
   C       10.17127         0.91555        -1.47956
   C       10.20026         1.83272        -0.46456
   C       11.49929         2.26945        -0.12408
   C       11.87466         3.18367         0.88411
   C       10.91845         3.76856         1.80057
   C       10.92673         5.02941         2.32895
   C        9.87376         5.24532         3.24107
   C        9.05936         4.16665         3.43284
   S        9.59570         2.84273         2.46017
   C        7.87958         4.04980         4.32793
  Cl        9.63548         6.74848         4.04517
   C       13.23032         3.48753         0.97167
   C       14.20985         2.89893         0.13334
   C       13.84185         1.94418        -0.83673
   C       12.48365         1.67542        -0.95466
   S       11.77704         0.55562        -2.07838
   C       14.83897         1.27003        -1.64252
   C       16.04308         0.76641        -1.23921
   C       16.76129         0.16531        -2.29468
   C       16.12961         0.20919        -3.50393
   S       14.59734         0.99702        -3.34612
   C       16.58800        -0.32298        -4.81172
  Cl       18.30605        -0.55865        -2.05972
   C       15.50508         3.39633         0.40351
   C       15.54558         4.29399         1.43486
   S       13.95970         4.57919         2.11861
   C       16.67944         4.98764         1.97842
   C       17.97325         4.91513         1.48119
   F       18.24861         4.16195         0.40237
   C       19.06450         5.59684         2.04203
   F       20.24574         5.40910         1.42814
   C       18.97329         6.41281         3.16110
   C       17.66225         6.51483         3.69647
   C       16.54387         5.82553         3.11646
   N       15.41594         6.07065         3.77646
   S       15.72513         7.06426         5.00085
   N       17.30353         7.23370         4.75592
   C       20.07421         7.10685         3.76897
   C       21.37218         7.18736         3.34539
   C       22.20289         7.94611         4.20279
   C       23.57630         8.22438         4.05010
   C       24.29339         7.81042         2.86138
   C       23.87660         7.88931         1.56302
   C       24.83231         7.38766         0.65404
   C       25.97349         6.91799         1.23722
   S       25.88321         7.10433         2.95496
   C       27.15943         6.30343         0.58869
  Cl       24.57119         7.37834        -1.04802
   C       24.18562         8.91876         5.08936
   C       23.48365         9.38366         6.22734
   C       22.10121         9.15553         6.34860
   C       21.49730         8.41731         5.33633
   S       19.81372         7.97715         5.26603
   C       21.35283         9.67027         7.47956
   C       21.43781        10.90709         8.04948
   C       20.56579        11.05951         9.14992
   C       19.81906         9.95450         9.43530
   S       20.18247         8.68609         8.31310
   C       18.81911         9.75951        10.51577
  Cl       20.46934        12.52744        10.04791
   C       24.35407        10.04159         7.14510
   C       25.62967        10.09878         6.71110
   S       25.87074         9.35986         5.16757
   H       -1.36614        -4.90018        -6.47211
   H        1.06684        -5.43005        -7.20405
   H        5.58300        -5.40602        -5.80534
   H        4.99921        -5.58909       -11.04846
   H        3.83018        -6.85485       -10.67784
   H        5.55742        -7.12808       -10.37759
   H        2.28048         0.62028        -3.41114
   H       -0.99006        -0.07874         0.57694
   H       -2.26033        -0.35561        -0.61517
   H       -1.56001         1.26329        -0.41761
   H        3.89254        -0.75064        -2.59128
   H        9.30087         2.18207         0.00392
   H       11.63054         5.79342         2.05793
   H        8.19637         3.84958         5.35253
   H        7.23354         3.23833         4.00314
   H        7.31786         4.98241         4.32669
   H       16.39274         0.77916        -0.22357
   H       17.63429        -0.61106        -4.74485
   H       16.47106         0.42628        -5.59278
   H       16.00092        -1.19719        -5.09422
   H       16.36396         3.10516        -0.16926
   H       21.74413         6.70507         2.46238
   H       22.94441         8.32567         1.25548
   H       27.09725         5.21515         0.62953
   H       28.07326         6.60866         1.09340
   H       27.20572         6.60446        -0.45541
   H       22.06470        11.69791         7.68087
   H       19.09932         8.91941        11.15015
   H       17.83661         9.54864        10.09473
   H       18.75717        10.65772        11.12511
   H       24.03035        10.42890         8.09324
   H       26.47502        10.53266         7.20851
*
