# ORCA input file
# SCF done       -150.444102588299          0.000793537781
! CAM-B3LYP def2-SVP def2/J RIJCOSX Grid4 TightSCF
%maxcore 5000
%tddft
    Mode sTDDFT
    Ethresh 5.0
    maxcore 5000
end

%pal
  nprocs 6
  end
* xyz 0 1
   C       -0.49942        -1.58085         3.83636
   N       -0.78573        -1.59670         5.17128
   C       -2.06918        -1.19997         5.38773
   C       -2.62651        -0.91949         4.16082
   C       -1.62046        -1.16586         3.18484
   S       -2.32512        -0.80301         1.59041
   O       -2.45887        -1.99038         0.79135
   O       -1.69118         0.33353         0.98058
   C       -3.92831        -0.33442         2.31071
   C       -3.88836        -0.46361         3.65294
   C       -4.93193         0.08636         1.40336
   C       -6.17618         0.49432         1.74474
   C       -7.16284         0.94701         0.82645
   S       -8.73123         1.41554         1.42098
   C       -9.28714         1.89658        -0.15941
   C       -8.30605         1.64643        -1.10409
   C       -7.10903         1.12043        -0.54809
   O       -5.99287         0.84014        -1.25521
   C       -8.39211         2.05228        -2.52908
   O       -8.81604         3.10889        -2.89939
   O       -7.86102         1.16773        -3.40373
   C      -10.61576         2.37084        -0.38217
   S      -11.40925         2.16188        -1.91641
   C      -12.85539         2.93262        -1.36263
   C      -12.73718         3.33615        -0.02951
   C      -11.45772         3.00232         0.50959
   O      -11.12499         3.31830         1.78998
   C      -13.81853         3.91555         0.77717
   O      -14.88998         4.25824         0.30545
   O      -13.62344         4.04635         2.07885
   C      -13.89972         2.98148        -2.34288
   S      -13.94798         1.64974        -3.47631
   C      -15.18239         2.40514        -4.41287
   C      -15.55107         3.64452        -3.89067
   C      -14.81240         3.95876        -2.70649
   O      -14.96120         5.13348        -2.06900
   C      -16.57910         4.55627        -4.44971
   O      -17.24640         4.29908        -5.43332
   O      -16.76611         5.70439        -3.82667
   C      -15.61501         1.64208        -5.53979
   N      -16.57190         1.98884        -6.45544
   C      -16.71651         1.01878        -7.38096
   C      -15.83326        -0.00469        -7.07477
   C      -15.14071         0.39583        -5.91399
   S      -14.01130        -0.90291        -5.47344
   O      -14.38782        -1.52175        -4.22967
   O      -12.64041        -0.48339        -5.59478
   C      -14.51644        -1.92675        -6.88915
   C      -15.46704        -1.29369        -7.59774
   C      -13.87472        -3.19785        -7.04675
   C      -14.12841        -4.08773        -8.00510
   H        0.46361        -1.86123         3.46149
   H       -0.13667        -1.86543         5.89360
   H       -2.48253        -1.14537         6.37487
   H       -4.71376        -0.25039         4.31441
   H       -4.63245         0.07459         0.36626
   H       -6.47637         0.49656         2.78411
   H       -6.04511         1.19857        -2.15328
   H       -7.76443         0.27561        -3.04159
   H      -10.20067         3.09719         1.96810
   H      -12.72547         3.78468         2.35165
   H      -14.91464         4.95924        -1.08531
   H      -16.17442         5.80061        -3.04706
   H      -17.06914         2.88161        -6.36868
   H      -17.42232         1.11152        -8.18214
   H      -15.93392        -1.69190        -8.48465
   H      -13.12834        -3.40265        -6.29047
   H      -14.86787        -3.90923        -8.76700
   H      -13.60301        -5.02494        -8.05318
*
