# ORCA input file
# SCF done       -197.673414565385          0.000624286780
! CAM-B3LYP def2-SVP def2/J RIJCOSX Grid4 TightSCF
%maxcore 5000
%tddft
    Mode sTDDFT
    Ethresh 5.0
    maxcore 5000
end

%pal
  nprocs 6
  end
* xyz 0 1
   C        3.94091        -0.00082         1.88576
   O        5.05576        -0.45990         1.98541
   C        3.55795         1.39155         1.67973
   C        2.20183         1.58390         1.91133
   C        1.81115         2.92871         1.76228
   C        2.87749         3.70997         1.42751
   S        4.36361         2.84419         1.29077
   C        1.59232         0.31054         2.23905
   C        0.26065         0.12467         2.51821
   C       -0.64787         1.20147         2.55213
   N       -1.40532         2.06327         2.58932
   C       -0.34437        -1.11342         2.80162
   N       -0.89154        -2.09698         3.03511
   C        2.63549        -0.69077         2.15264
   C        2.49423        -2.02954         2.37624
   C        3.44616        -2.99600         1.98024
   N        3.58724        -4.23846         2.56506
   C        2.85347        -4.72744         3.70714
   C        1.50386        -5.32189         3.30975
   C        4.58389        -4.99517         1.94505
   O        4.92247        -6.11234         2.31396
   C        5.04911        -4.16347         0.86514
   C        4.33185        -2.94711         0.91089
   C        4.72073        -2.14907        -0.23453
   O        4.33070        -1.08484        -0.66298
   N        5.70391        -2.92815        -0.87605
   C        6.47371        -2.39017        -1.96963
   C        7.80113        -1.81446        -1.48138
   C        5.92345        -4.12206        -0.22863
   C        6.87480        -5.07595        -0.63454
   C        7.08337        -6.19935         0.11606
   N        7.99266        -7.15193        -0.08544
   C        7.98257        -8.38460         0.66774
   N        9.30568        -8.90908         0.44560
   C        9.70314        -8.55568        -0.91064
   C       11.23419        -8.44811        -0.93243
   C       11.79581        -7.56983        -2.04729
   C       10.93394        -6.30778        -2.30884
   C        9.97176        -6.04951        -1.14812
   C        8.97494        -7.20983        -1.14947
   N       11.91210        -5.25768        -2.48390
   C       13.25945        -5.81645        -2.41096
   N       13.12493        -7.06729        -1.71250
   C       11.59609        -4.07023        -3.03239
   C       12.48460        -3.10006        -3.36716
   C       12.16242        -1.85196        -3.96468
   C       13.20881        -0.89892        -4.11587
   C       12.98762         0.39422        -4.68282
   N       14.03772         1.21026        -4.92090
   C       15.22523         0.82539        -4.54955
   C       15.42753        -0.40556        -3.89395
   N       14.44792        -1.24570        -3.70843
   C       11.69036         0.80241        -5.06976
   C       10.67065        -0.17439        -5.01910
   C       10.89115        -1.48430        -4.48125
   N        9.88463        -2.38120        -4.51109
   C        8.73006        -2.02274        -5.00736
   C        8.50199        -0.72213        -5.49057
   N        9.45565         0.16504        -5.49421
   C       11.40015         2.10060        -5.59631
   S       10.17067         2.27264        -6.79460
   C       10.48052         3.95823        -7.02526
   C       11.49455         4.39317        -6.16908
   C       11.99485         3.33894        -5.32722
   C       12.91424         3.64816        -4.30982
   C       13.42883         4.91791        -4.21159
   C       14.35473         5.22307        -3.19125
   N       15.10854         5.44669        -2.35631
   C       13.04339         5.92979        -5.14747
   C       13.64283         7.20650        -5.08029
   N       14.11479         8.25086        -5.04145
   C       12.08207         5.67100        -6.09308
   C        9.67020         4.66549        -7.97791
   C        9.39289         5.96905        -7.98933
   H        0.81272         3.30245         1.89411
   H        2.87546         4.76751         1.24858
   H        1.59189        -2.39081         2.84984
   H        2.72202        -3.91394         4.42594
   H        3.47494        -5.50623         4.15884
   H        0.85335        -4.57279         2.86465
   H        1.01028        -5.72599         4.18916
   H        1.65122        -6.12552         2.59226
   H        5.86650        -1.59263        -2.40671
   H        6.63358        -3.16521        -2.72468
   H        7.61184        -1.02683        -0.75656
   H        8.35990        -1.39739        -2.31454
   H        8.40572        -2.58233        -1.00315
   H        7.42855        -4.89108        -1.54019
   H        6.45809        -6.35822         0.98824
   H        7.17059        -9.04187         0.29399
   H        7.81338        -8.19397         1.73205
   H        9.38212        -9.89796         0.64222
   H        9.36657        -9.28845        -1.66228
   H       11.66572        -9.44594        -1.00384
   H       11.53280        -8.03960         0.03481
   H       11.88694        -8.14394        -2.97677
   H       10.34152        -6.42409        -3.22705
   H        9.46973        -5.09529        -1.29181
   H       10.50198        -6.00683        -0.19774
   H        8.46076        -7.21949        -2.12142
   H       13.94465        -5.13896        -1.89894
   H       13.63717        -6.00339        -3.42816
   H       13.19345        -6.91969        -0.71036
   H       10.54202        -3.90308        -3.19712
   H       13.53609        -3.23410        -3.16357
   H       16.04524         1.49352        -4.77496
   H       16.40434        -0.70902        -3.54272
   H        7.95595        -2.77835        -5.03177
   H        7.54116        -0.41335        -5.87795
   H       13.20984         2.89857        -3.59481
   H       11.79865         6.44361        -6.78964
   H        9.21610         4.02767        -8.72706
   H        9.74731         6.64994        -7.23643
   H        8.76576         6.39130        -8.75500
*
