# ORCA input file
# SCF done       -188.899920342208          0.000577909087
! CAM-B3LYP def2-SVP def2/J RIJCOSX Grid4 TightSCF
%maxcore 5000
%tddft
    Mode sTDDFT
    Ethresh 5.0
    maxcore 5000
end

%pal
  nprocs 6
  end
* xyz 0 1
   C        1.24640         5.05463         2.58157
   O        2.48755         4.58430         2.44792
   C        2.66961         4.26294         1.14009
   C        1.52620         4.53000         0.43223
   C        0.59484         5.05084         1.37282
   C       -0.71801         5.47829         1.11349
   N       -1.78437         5.82789         0.88341
   C        3.93221         3.73407         0.69346
   C        4.99416         3.60934         1.49080
   C        6.33827         3.09235         1.07824
   C        6.41824         2.81671        -0.42432
   O        6.44271         3.62722        -1.30028
   O        6.47431         1.49589        -0.64960
   C        6.37530         0.74365         0.55140
   C        6.75706         1.73207         1.67221
   C        6.22704         1.36110         3.05277
   C        4.76234         0.94709         3.05272
   C        4.46537        -0.16377         2.05977
   C        4.96545         0.11293         0.63555
   O        5.00715        -1.17228         0.02519
   C        5.14983        -2.14527         0.94055
   O        5.31139        -3.29216         0.66504
   C        5.09737        -1.52874         2.35079
   C        4.33609        -2.36191         3.32535
   C        4.90535        -3.04532         4.30672
   C        4.18732        -3.89116         5.31791
   C        2.69432        -4.01816         5.00677
   O        2.19074        -4.65656         4.13543
   O        1.97740        -3.29680         5.88789
   C        2.80850        -2.59818         6.80077
   C        4.15398        -3.34485         6.76032
   C        5.33355        -2.52378         7.27033
   C        5.40177        -1.11525         6.69325
   C        4.10239        -0.33844         6.84689
   C        2.84888        -1.10446         6.40374
   O        1.77665        -0.44012         7.06350
   C        2.19332         0.18264         8.17247
   O        1.44368         0.69929         8.94657
   C        3.72149         0.11559         8.26375
   C        4.38009         1.40842         8.63988
   C        3.78834         2.41541         9.27870
   C        4.42845         3.66028         9.62634
   S        4.14100         4.28579        11.20945
   C        5.21395         5.62987        10.98102
   C        5.72404         5.62717         9.68376
   C        5.28446         4.49104         8.91290
   C        5.68056         4.40204         7.54669
   C        5.23308         3.40419         6.65901
   N        4.93205         2.66292         5.83476
   C        6.49979         5.37177         7.00124
   C        6.89398         6.48825         7.74177
   C        6.49284         6.64335         9.05308
   C        6.76307         7.88382         9.67204
   N        6.96152         8.93323        10.09012
   C        5.55110         6.46823        12.08567
   S        7.19909         6.85557        12.44852
   C        6.78647         7.75281        13.86152
   C        5.41006         7.70244        14.09164
   C        4.70506         6.96788        13.07770
   C        3.30319         6.85400        13.13622
   C        2.62233         7.39963        14.19495
   C        1.21404         7.29317        14.26407
   N        0.07299         7.19922        14.30383
   C        3.32985         8.06315        15.24804
   C        2.60978         8.56544        16.35661
   N        2.04463         8.97818        17.26380
   C        4.69308         8.21265        15.19207
   C        7.84551         8.41650        14.57196
   C        7.72627         9.51029        15.32250
   H        0.92328         5.35789         3.55808
   H        1.36230         4.38552        -0.61557
   H        3.96712         3.46176        -0.35083
   H        4.92617         3.93775         2.51974
   H        7.07387         3.86330         1.33011
   H        7.09959        -0.07459         0.47039
   H        7.85239         1.73776         1.72473
   H        6.35525         2.20509         3.73116
   H        6.83632         0.54228         3.44217
   H        4.13719         1.80505         2.80973
   H        4.48838         0.61577         4.05360
   H        3.37951        -0.30538         2.00660
   H        4.27276         0.72848         0.05497
   H        6.13692        -1.42693         2.68090
   H        3.26578        -2.39028         3.17658
   H        5.98383        -3.05331         4.40444
   H        4.63756        -4.88764         5.28936
   H        2.33174        -2.67015         7.78471
   H        4.05024        -4.21570         7.41842
   H        6.25967        -3.05442         7.04465
   H        5.25402        -2.46451         8.35856
   H        5.63931        -1.16426         5.63135
   H        6.20451        -0.56390         7.18654
   H        4.17218         0.57149         6.23921
   H        2.66629        -1.02718         5.32844
   H        3.97522        -0.65019         9.00803
   H        5.42133         1.47664         8.35094
   H        2.77367         2.29922         9.63513
   H        6.79997         5.29021         5.96724
   H        7.48031         7.26170         7.26995
   H        2.76299         6.33987        12.35567
   H        5.21174         8.69514        16.00462
   H        8.82760         7.98803        14.41341
   H        6.79343        10.02880        15.45455
   H        8.58526         9.94144        15.80540
*
