# ORCA input file
# SCF done       -171.419904613101          0.000795545707
! CAM-B3LYP def2-SVP def2/J RIJCOSX Grid4 TightSCF
%maxcore 5000
%tddft
    Mode sTDDFT
    Ethresh 5.0
    maxcore 5000
end

%pal
  nprocs 6
  end
* xyz 0 1
   C        5.17368        -8.08140        -0.00455
   S        3.70419        -7.46022         0.58761
   C        2.75125        -8.53297        -0.39581
   C        3.59116        -9.35472        -1.16542
   C        4.98375        -9.08771        -0.92984
   C        5.97201        -9.83135        -1.60988
   C        5.58824       -10.81221        -2.48739
   C        6.56381       -11.57574        -3.17117
   N        7.36835       -12.18609        -3.71167
   C        4.20055       -11.08106        -2.72069
   C        3.83665       -12.10658        -3.62231
   N        3.51761       -12.93712        -4.34468
   C        3.22412       -10.36098        -2.07221
   C        1.34361        -8.53179        -0.36335
   C        0.59133        -7.76504         0.47484
   C       -0.81357        -7.77028         0.52319
   S       -1.78093        -8.71606        -0.55947
   C       -3.27606        -8.24533         0.19167
   C       -3.03465        -7.32396         1.22761
   C       -1.63944        -7.06215         1.41863
   C       -1.22291        -6.16717         2.41523
   C       -2.16086        -5.51642         3.18333
   C       -1.74666        -4.61218         4.18802
   N       -1.38620        -3.88490         4.99655
   C       -3.55294        -5.72911         2.95360
   C       -4.49993        -5.00296         3.71277
   N       -5.27941        -4.41818         4.31515
   C       -3.97810        -6.61667         1.99178
   C       -4.46837        -8.82423        -0.29084
   C       -5.64558        -8.95388         0.38159
   C       -6.79349        -9.54713        -0.18916
   O       -6.85258        -9.87739        -1.49576
   C       -8.06951       -10.43346        -1.73781
   C       -8.80938       -10.47068        -0.56702
   C       -8.00239        -9.89684         0.42976
   C       -8.31068        -9.70866         1.78347
   N       -8.55392        -9.55087         2.89296
   C       -8.42229       -10.84780        -3.04428
   C       -7.62998       -10.64124        -4.13069
   C       -7.94505       -11.02047        -5.44777
   S       -9.37505       -11.92249        -5.83965
   C       -9.01574       -11.95268        -7.53933
   C       -7.81110       -11.26912        -7.79765
   C       -7.20568       -10.74447        -6.61266
   C       -6.00509       -10.02378        -6.70221
   C       -5.42169        -9.82092        -7.93164
   C       -4.21734        -9.08586        -8.02051
   N       -3.24315        -8.48391        -8.05567
   C       -6.02669       -10.34107        -9.11509
   C       -5.41440       -10.10428       -10.36742
   N       -4.93430        -9.91256       -11.38971
   C       -7.20047       -11.05654        -9.04329
   C       -9.85196       -12.59471        -8.46965
   C      -11.04551       -13.16821        -8.14128
   C      -11.94648       -13.84455        -8.98737
   S      -13.56866       -14.06569        -8.40110
   C      -14.11016       -14.82218        -9.85308
   C      -13.05490       -14.93585       -10.76669
   C      -11.81744       -14.39764       -10.27510
   C      -10.65640       -14.53315       -11.05305
   C      -10.72400       -15.11702       -12.29727
   C       -9.55006       -15.25497       -13.07225
   N       -8.58411       -15.35410       -13.68050
   C      -11.96796       -15.59681       -12.80910
   C      -12.01560       -16.17801       -14.09741
   N      -12.07830       -16.65076       -15.13903
   C      -13.10764       -15.51749       -12.04695
   C      -15.46396       -15.24788       -10.02565
   C      -16.42541       -15.11284        -9.11010
   H        6.10442        -7.68669         0.35113
   H        7.01732        -9.62846        -1.43283
   H        2.18446       -10.57927        -2.26340
   H        0.84201        -9.20160        -1.04939
   H        1.09785        -7.11139         1.17234
   H       -0.17379        -5.97475         2.57912
   H       -5.03442        -6.73595         1.81384
   H       -4.40671        -9.26483        -1.27843
   H       -5.74648        -8.66204         1.41540
   H       -9.80201       -10.85425        -0.44855
   H       -9.38405       -11.32868        -3.14795
   H       -6.68620       -10.13438        -3.98527
   H       -5.53686        -9.62116        -5.81725
   H       -7.64347       -11.44037        -9.94952
   H       -9.51591       -12.58248        -9.49452
   H      -11.38256       -13.05675        -7.11666
   H       -9.69765       -14.21547       -10.67715
   H      -14.03576       -15.90994       -12.43287
   H      -15.69095       -15.70799       -10.97752
   H      -16.23313       -14.65921        -8.15164
   H      -17.42791       -15.45352        -9.29425
*
