# ORCA input file
# SCF done       -200.846924066139          0.000342804737
! CAM-B3LYP def2-SVP def2/J RIJCOSX Grid4 TightSCF
%maxcore 5000
%tddft
    Mode sTDDFT
    Ethresh 5.0
    maxcore 5000
end

%pal
  nprocs 6
  end
* xyz 0 1
   C       -4.07852       -11.05089         1.98639
   S       -2.74770       -10.00530         2.14511
   C       -3.43087        -8.81504         1.07100
   C       -4.67237        -9.25713         0.59594
   C       -5.03793       -10.53489         1.13930
   C       -6.27576       -11.11585         0.79891
   C       -7.15056       -10.46757        -0.03466
   C       -8.45192       -11.09967        -0.26905
   C       -9.62517       -10.48328        -0.28935
   C       -6.76251        -9.23005        -0.63408
   C       -7.63202        -8.55439        -1.64998
   C       -5.55870        -8.65739        -0.31961
   C       -2.67205        -7.62860         0.91563
   C       -2.95397        -6.49787         0.22663
   C       -2.10627        -5.35543         0.25564
   C       -2.28948        -4.14149        -0.40901
   C       -1.28337        -3.21290        -0.06624
   C       -0.33830        -3.74379         0.77638
   S       -0.64222        -5.36523         1.21347
   C        0.75852        -2.77967         0.99676
   C        0.00726        -1.46358         0.77273
   C       -1.00036        -1.75143        -0.36926
   C       -2.27313        -0.90116        -0.25253
   C       -3.07810        -1.11754         1.02588
   C       -0.36971        -1.63809        -1.77035
   C       -0.25759        -0.21564        -2.31049
   C        1.09059        -0.40135         0.81195
   C        1.83835        -0.68970         2.12200
   S        1.63225        -2.47687         2.56631
   C       -3.41881        -3.98546        -1.32977
   C       -3.45821        -4.21407        -2.69671
   C       -4.80644        -4.28191        -3.16504
   C       -5.71199        -4.06597        -2.15975
   S       -5.00184        -3.75640        -0.63506
   C       -7.09951        -4.19642        -2.65446
   C       -6.86191        -5.16442        -3.81793
   C       -5.52491        -4.70157        -4.44936
   C       -5.75469        -3.48205        -5.36542
   C       -6.15974        -3.79379        -6.80310
   C       -4.78306        -5.82794        -5.18331
   C       -4.39673        -7.02581        -4.31915
   C       -8.21101        -5.27567        -4.50325
   C       -9.18860        -5.58661        -3.35962
   S       -8.47654        -4.98222        -1.76019
   C       -2.22458        -4.48712        -3.42895
   C       -1.71660        -4.03733        -4.63820
   C       -0.43035        -4.60350        -4.90702
   C       -0.01491        -5.44402        -3.90995
   S       -1.13925        -5.61559        -2.64448
   C        1.29607        -6.05171        -4.20639
   C        1.84826        -5.01034        -5.17695
   C        0.63644        -4.49323        -5.99593
   C        0.33937        -5.38134        -7.22869
   C       -0.55319        -6.59331        -6.98462
   C        0.92358        -3.05907        -6.48491
   C        0.94398        -1.98946        -5.39972
   C        3.13208        -5.62603        -5.70141
   C        3.88780        -6.02320        -4.42284
   S        2.67943        -6.25003        -3.03373
   C       -2.33544        -3.10289        -5.56005
   S       -2.34064        -3.50295        -7.24019
   C       -2.97823        -1.97161        -7.72400
   C       -3.25465        -1.19529        -6.60325
   C       -2.90977        -1.84784        -5.36879
   C       -3.24834        -1.22018        -4.15011
   C       -3.89636        -0.01459        -4.14161
   C       -4.35661         0.57617        -2.88121
   C       -5.04150        -0.10156        -1.97298
   C       -4.20229         0.65296        -5.36783
   C       -4.91519         1.97018        -5.33320
   C       -3.89474         0.06269        -6.55741
   C       -3.12834        -1.72937        -9.13184
   C       -3.13021        -0.54690        -9.74482
   H       -4.10402       -11.97991         2.52004
   H       -6.53954       -12.06954         1.23350
   H       -8.41875       -12.17934        -0.36172
   H       -9.72103        -9.42120        -0.14400
   H      -10.54340       -11.03023        -0.42438
   H       -8.29174        -9.26347        -2.14340
   H       -7.00883        -8.07176        -2.40046
   H       -8.23784        -7.78152        -1.17623
   H       -5.28507        -7.73013        -0.79695
   H       -1.73899        -7.63773         1.46919
   H       -3.85743        -6.40217        -0.35397
   H        1.54937        -2.94823         0.25441
   H       -0.60011        -1.32007         1.67306
   H       -2.00700         0.15408        -0.32725
   H       -2.91437        -1.14196        -1.10088
   H       -2.57158        -0.71379         1.89906
   H       -3.26790        -2.17442         1.19598
   H       -4.03698        -0.61286         0.93803
   H        0.62182        -2.09513        -1.73762
   H       -0.96649        -2.23250        -2.46555
   H        0.20042         0.44805        -1.58345
   H       -1.23630         0.17783        -2.57188
   H        0.35540        -0.21097        -3.20851
   H        0.68930         0.61201         0.82891
   H        1.76754        -0.50255        -0.03760
   H        1.42317        -0.12191         2.95356
   H        2.90467        -0.48373         2.05069
   H       -7.48473        -3.22286        -2.98220
   H       -6.66055        -6.13621        -3.35513
   H       -6.51917        -2.84724        -4.91320
   H       -4.84420        -2.89361        -5.39048
   H       -7.03182        -4.43991        -6.84784
   H       -5.34769        -4.27098        -7.34474
   H       -6.39712        -2.86238        -7.31375
   H       -3.87486        -5.40180        -5.61231
   H       -5.40622        -6.18232        -6.00542
   H       -5.26431        -7.62421        -4.05138
   H       -3.89612        -6.71537        -3.40590
   H       -3.71568        -7.66804        -4.87322
   H       -8.24011        -6.07284        -5.24587
   H       -8.48337        -4.33438        -4.98196
   H       -9.33974        -6.65822        -3.24009
   H      -10.15560        -5.10562        -3.49557
   H        1.16918        -7.04044        -4.65994
   H        2.15254        -4.16505        -4.54840
   H       -0.14243        -4.76827        -7.99179
   H        1.29144        -5.71081        -7.64816
   H       -0.09839        -7.30709        -6.30451
   H       -0.73760        -7.09980        -7.92977
   H       -1.51123        -6.28943        -6.57034
   H        1.88830        -3.07546        -6.99856
   H        0.17452        -2.77011        -7.22313
   H        1.71380        -2.17615        -4.65492
   H       -0.01608        -1.93868        -4.89420
   H        1.14343        -1.01986        -5.85154
   H        3.72776        -4.92871        -6.29021
   H        2.92683        -6.51139        -6.30526
   H        4.57243        -5.24006        -4.10073
   H        4.44257        -6.95259        -4.53605
   H       -3.03350        -1.72875        -3.22457
   H       -4.14349         1.62683        -2.73146
   H       -5.29769        -1.13850        -2.11793
   H       -5.38591         0.35359        -1.06035
   H       -5.82576         1.89784        -4.73974
   H       -5.17687         2.29087        -6.33863
   H       -4.28258         2.73559        -4.88311
   H       -4.18741         0.53443        -7.48161
   H       -3.19782        -2.62991        -9.73148
   H       -2.99578         0.38073        -9.21830
   H       -3.24207        -0.47939       -10.81277
*
