# ORCA input file
# SCF done       -151.670829949594          0.000384228880
! CAM-B3LYP def2-SVP def2/J RIJCOSX Grid4 TightSCF
%maxcore 5000
%tddft
    Mode sTDDFT
    Ethresh 5.0
    maxcore 5000
end

%pal
  nprocs 6
  end
* xyz 0 1
   C        0.63541        -1.76022         3.51820
   S        0.07407        -1.55428         1.92378
   C       -0.67557        -3.12118         1.88854
   C       -0.48028        -3.78008         3.10714
   C        0.27859        -2.98393         4.03873
   C        0.58234        -3.48816         5.32268
   C        0.15675        -4.74174         5.67239
   C        0.45625        -5.26650         6.95128
   N        0.71008        -5.67622         7.99064
   C       -0.59145        -5.53962         4.74532
   C       -1.01092        -6.83418         5.12561
   N       -1.35889        -7.88840         5.41027
   C       -0.90149        -5.06518         3.49417
   C       -1.34677        -3.53030         0.70509
   S       -2.28893        -5.00063         0.58933
   C       -2.69303        -4.68833        -1.06951
   C       -2.10922        -3.49403        -1.49135
   C       -1.36358        -2.84917        -0.49127
   C       -2.25507        -3.01635        -2.80287
   N       -2.37710        -2.65075        -3.88403
   C       -3.49343        -5.54906        -1.85955
   C       -4.08044        -6.68085        -1.40550
   C       -4.87195        -7.58135        -2.17609
   C       -5.80016        -8.49135        -1.67070
   C       -6.15259        -8.70801        -0.24575
   C       -6.43280        -9.21084        -2.74244
   C       -5.85432        -8.74026        -3.92299
   C       -4.86759        -7.72398        -3.60766
   C       -4.13252        -7.20272        -4.64151
   C       -4.42551        -7.63656        -5.95204
   C       -5.40000        -8.56726        -6.15847
   O       -6.09684        -9.12555        -5.17697
   C       -7.46075       -10.17794        -2.58951
   C       -8.03835       -10.87610        -3.60406
   C       -9.09114       -11.80646        -3.43145
   C       -9.78106       -12.15607        -2.28501
   C      -10.77623       -13.10730        -2.60505
   C      -10.65915       -13.35528        -4.05895
   C       -9.65810       -12.57174        -4.53370
   C      -11.42922       -14.22802        -4.83263
   N      -12.04021       -14.93331        -5.50404
   C      -11.70169       -13.68622        -1.75852
   C      -12.69755       -14.64077        -2.08427
   C      -13.41157       -14.97001        -0.94816
   C      -12.87745       -14.18620         0.14907
   C      -11.85766       -13.41500        -0.32198
   C      -11.11808       -12.51046         0.44466
   N      -10.52380       -11.77170         1.09488
   C      -14.50322       -15.87892        -0.90806
   S      -15.30828       -16.27322        -2.39621
   C      -16.43527       -17.28397        -1.62259
   C      -16.22303       -17.35681        -0.26111
   C      -15.10244       -16.55657         0.16245
   C      -14.71748       -16.58949         1.51420
   C      -15.44060       -17.33556         2.41494
   C      -15.05255       -17.36764         3.77324
   N      -14.72415       -17.38028         4.87128
   C      -16.58268       -18.09259         1.99677
   C      -17.30879       -18.83761         2.95466
   N      -17.91120       -19.44593         3.71613
   C      -16.95849       -18.10901         0.67877
   H        1.19739        -0.98192         3.99392
   H        1.14904        -2.88450         6.01535
   H       -1.46257        -5.69015         2.81780
   H       -0.84745        -1.91783        -0.64618
   H       -3.64475        -5.21514        -2.87577
   H       -3.96491        -6.91992        -0.35520
   H       -5.53136        -8.11524         0.41778
   H       -6.03894        -9.75995         0.01491
   H       -7.19439        -8.43789        -0.07170
   H       -3.33901        -6.48965        -4.49049
   H       -3.88308        -7.23671        -6.79115
   H       -5.67961        -8.93970        -7.13260
   H       -7.80089       -10.35514        -1.57978
   H       -7.69290       -10.72819        -4.61760
   H       -9.61296       -11.76871        -1.30050
   H       -9.32178       -12.51390        -5.55318
   H      -12.85300       -15.05974        -3.05936
   H      -13.25643       -14.16629         1.15302
   H      -17.19650       -17.78020        -2.19095
   H      -13.84481       -16.05579         1.85415
   H      -17.80515       -18.69504         0.35435
*
