# ORCA input file
# SCF done       -185.935135041971          0.000344080878
! CAM-B3LYP def2-SVP def2/J RIJCOSX Grid4 TightSCF
%maxcore 5000
%tddft
    Mode sTDDFT
    Ethresh 5.0
    maxcore 5000
end

%pal
  nprocs 6
  end
* xyz 0 1
   C       -2.82971        -1.42506        -2.86887
   C       -1.65675        -2.16452        -2.89864
   C       -0.45914        -1.47991        -2.85478
   C       -0.43511        -0.08297        -2.77459
   C        0.98711         0.34904        -2.75209
   O        1.44992         1.45841        -2.69366
   N        1.72650        -0.82298        -2.80805
   C        0.94127        -1.96523        -2.87745
   O        1.36186        -3.09261        -2.93369
   C        3.17362        -0.84927        -2.83579
   C        3.70096        -0.71541        -4.25991
   C       -1.59203         0.65584        -2.73463
   C       -2.82158        -0.02666        -2.78643
   C       -4.06256         0.71596        -2.75350
   C       -4.25496         1.99325        -2.29492
   C       -5.62655         2.35746        -2.47157
   C       -6.28693         1.18258        -3.06733
   C       -5.34870         0.21155        -3.21916
   C       -7.65097         1.02377        -3.34175
   N       -8.76426         0.82369        -3.54062
   C       -6.22413         3.55798        -2.16977
   C       -7.55045         3.96169        -2.48537
   C       -7.77987         5.22537        -1.97257
   C       -6.55929         5.65895        -1.30680
   C       -5.61953         4.68633        -1.44127
   C       -4.31677         4.75934        -0.93498
   N       -3.25447         4.85216        -0.50838
   C       -9.00778         5.91668        -2.13989
   N       -9.49319         6.96269        -1.39971
   C       -8.88738         7.61489        -0.26228
   C       -8.07896         8.83995        -0.68340
   C      -10.77131         7.36789        -1.83583
   O      -11.40286         8.25924        -1.30905
   C      -11.06544         6.49495        -2.95166
   C       -9.97693         5.61508        -3.10734
   C      -10.23520         4.78008        -4.26616
   O       -9.58578         3.92015        -4.81632
   N      -11.49917         5.20709        -4.71972
   C      -12.14765         4.54221        -5.82451
   C      -13.18571         3.53184        -5.34292
   C      -12.01261         6.22126        -3.95073
   C      -13.25733         6.83692        -4.19238
   C      -13.76555         7.82626        -3.40038
   C      -15.00692         8.46478        -3.61893
   C      -15.56533         9.43400        -2.80679
   C      -16.82014         9.83775        -3.34415
   C      -17.00510         9.04622        -4.57710
   C      -15.92793         8.23420        -4.72574
   C      -18.08546         9.10506        -5.46502
   N      -18.95033         9.12707        -6.22087
   C      -17.70091        10.76131        -2.83369
   C      -18.96831        11.14843        -3.37416
   C      -19.54934        12.07654        -2.55081
   C      -18.64037        12.31754        -1.43879
   C      -17.53188        11.54746        -1.59950
   C      -16.43659        11.52832        -0.72932
   N      -15.55751        11.54012         0.00992
   C      -20.83513        12.71898        -2.71723
   C      -21.50133        13.26500        -1.60634
   C      -22.72805        13.85071        -1.80602
   C      -23.30871        13.92229        -3.07621
   C      -24.61648        14.60833        -2.94541
   O      -25.42845        14.88244        -3.79142
   N      -24.74203        14.90570        -1.59428
   C      -23.65936        14.48581        -0.83836
   O      -23.54123        14.63550         0.35074
   C      -25.91034        15.54341        -1.02523
   C      -26.95502        14.51124        -0.61577
   C      -22.66395        13.39539        -4.17828
   C      -21.43006        12.79391        -3.98389
   H       -3.77392        -1.94690        -2.88763
   H       -1.67469        -3.24171        -2.95540
   H        3.48904        -1.79993        -2.39939
   H        3.52929        -0.01977        -2.21985
   H        3.33491        -1.53403        -4.87546
   H        4.78685        -0.74118        -4.25343
   H        3.37558         0.22755        -4.69315
   H       -1.55333         1.73208        -2.68302
   H       -3.51428         2.63952        -1.86760
   H       -5.52124        -0.76294        -3.63612
   H       -8.24897         3.37576        -3.04850
   H       -6.39711         6.60580        -0.82949
   H       -8.27635         6.89227         0.28201
   H       -9.70931         7.93852         0.38349
   H       -7.31943         8.58081        -1.41831
   H       -7.59519         9.27921         0.18463
   H       -8.74150         9.58108        -1.12321
   H      -11.35546         4.02048        -6.36848
   H      -12.59861         5.28591        -6.48737
   H      -12.70497         2.77209        -4.73186
   H      -13.65016         3.04663        -6.19669
   H      -13.95915         4.01584        -4.75001
   H      -13.82098         6.49212        -5.04690
   H      -13.20073         8.15786        -2.53872
   H      -15.12647         9.82072        -1.90788
   H      -15.77728         7.54118        -5.53239
   H      -19.39070        10.73350        -4.26729
   H      -18.80795        13.01508        -0.63963
   H      -21.08242        13.20842        -0.61425
   H      -26.31708        16.21737        -1.78287
   H      -25.57899        16.11601        -0.15569
   H      -27.27639        13.93778        -1.48221
   H      -27.81865        15.01175        -0.18763
   H      -26.54096        13.83166         0.12568
   H      -23.11101        13.45236        -5.15837
   H      -20.90403        12.38413        -4.83222
*
