# ORCA input file
# SCF done       -153.361157555893          0.000780290026
! CAM-B3LYP def2-SVP def2/J RIJCOSX Grid4 TightSCF
%maxcore 5000
%tddft
    Mode sTDDFT
    Ethresh 5.0
    maxcore 5000
end

%pal
  nprocs 6
  end
* xyz 0 1
   C        0.06659        -4.16509        -1.97234
   C       -0.03463        -3.48549        -0.77675
   C       -1.20733        -2.81177        -0.44995
   N       -1.20953        -2.07350         0.78361
   O       -0.39258        -2.39028         1.62361
   O       -2.00884        -1.16797         0.91581
   C       -2.31977        -2.81803        -1.31031
   C       -2.18425        -3.51957        -2.51388
   C       -1.01530        -4.17392        -2.84351
   C       -3.57900        -2.18890        -0.96700
   C       -4.39749        -1.62023        -1.87037
   C       -5.64422        -0.99919        -1.55406
   S       -6.57276        -0.24908        -2.82214
   C       -7.83168         0.22169        -1.72120
   C       -7.51086        -0.18574        -0.42532
   C       -6.28375        -0.86859        -0.34374
   C       -8.26065         0.10255         0.72921
   N       -8.80509         0.33744         1.71119
   C       -8.95406         0.93315        -2.21836
   C      -10.10887         1.12291        -1.53080
   C      -11.27296         1.83218        -1.92295
   N      -11.45905         2.74079        -2.94652
   C      -10.48040         3.30704        -3.84389
   C       -9.46998         4.18996        -3.11726
   C      -12.77616         3.23937        -2.96325
   O      -13.16472         4.06827        -3.76671
   C      -13.44392         2.55535        -1.88401
   C      -12.49339         1.70755        -1.26695
   C      -13.15307         0.98042        -0.20508
   O      -12.77054         0.12953         0.56633
   N      -14.48049         1.46212        -0.23975
   C      -15.45416         1.01868         0.72724
   C      -15.64578         2.03603         1.84971
   C      -14.66593         2.39932        -1.22834
   C      -15.90299         3.04131        -1.48135
   C      -16.04309         3.99311        -2.44018
   C      -17.25232         4.67764        -2.72530
   S      -17.24870         5.93762        -3.93308
   C      -18.93441         6.25859        -3.69492
   C      -19.45772         5.40649        -2.72056
   C      -18.51046         4.52447        -2.17982
   C      -20.80625         5.43362        -2.32393
   N      -21.90571         5.44516        -1.99735
   C      -19.65281         7.26277        -4.40022
   C      -19.09810         8.06941        -5.32781
   C      -19.76365         9.11200        -6.06880
   C      -21.11108         9.43030        -5.90446
   C      -21.69963        10.44118        -6.64736
   N      -23.10927        10.65894        -6.44004
   O      -23.57650        10.29822        -5.38012
   O      -23.74950        11.17253        -7.33325
   C      -20.97280        11.19761        -7.58129
   C      -19.62121        10.87043        -7.73208
   C      -19.03504         9.85830        -7.00816
   C      -21.54573        12.31108        -8.32705
   C      -21.20659        12.61645        -9.57332
   H        0.97853        -4.68108        -2.22720
   H        0.78958        -3.44903        -0.08037
   H       -3.02984        -3.56751        -3.18237
   H       -0.94603        -4.70363        -3.78157
   H       -3.84703        -2.16115         0.07831
   H       -4.10783        -1.57559        -2.91212
   H       -5.88729        -1.23587         0.58536
   H       -8.84560         1.28978        -3.23170
   H      -10.21882         0.65262        -0.56185
   H      -11.05608         3.91514        -4.54917
   H       -9.98243         2.51383        -4.40798
   H       -9.98506         5.00693        -2.61791
   H       -8.76746         4.60827        -3.83299
   H       -8.91627         3.62472        -2.37132
   H      -15.06029         0.08672         1.14275
   H      -16.40247         0.80655         0.22478
   H      -14.70323         2.19644         2.36700
   H      -16.37496         1.66360         2.56388
   H      -15.99228         2.99050         1.45886
   H      -16.74956         2.75476        -0.87526
   H      -15.18219         4.27166        -3.03389
   H      -18.75312         3.80377        -1.41994
   H      -20.69837         7.34536        -4.13520
   H      -18.04587         7.93998        -5.55221
   H      -21.73237         8.89319        -5.20452
   H      -19.02627        11.44752        -8.42299
   H      -17.98860         9.63496        -7.15671
   H      -22.29744        12.89976        -7.81994
   H      -20.50890        12.02314       -10.14107
   H      -21.64513        13.45663       -10.08183
*
