# ORCA input file
# SCF done       -197.364692993035          0.000917331008
! CAM-B3LYP def2-SVP def2/J RIJCOSX Grid4 TightSCF
%maxcore 5000
%tddft
    Mode sTDDFT
    Ethresh 5.0
    maxcore 5000
end

%pal
  nprocs 6
  end
* xyz 0 1
   C        1.22397         2.78383         4.04499
   C        1.87359         3.81784         3.38369
   C        2.82531         3.55674         2.40684
   C        3.11012         2.23647         2.11144
   C        2.45429         1.19344         2.77921
   C        1.50474         1.45705         3.74894
   C        2.93800        -0.11119         2.28233
   O        2.48887        -1.20701         2.55630
   C        4.01048         0.20040         1.31701
   C        4.06529         1.67761         1.13174
   O        4.75598         2.27330         0.33917
   C        4.82739        -0.60991         0.60316
   C        5.01977        -2.01848         0.68566
   S        5.44768        -2.84254        -0.78658
   C        5.52705        -4.37216         0.02112
   C        5.24589        -4.23261         1.37610
   C        4.98433        -2.90486         1.75304
   C        4.85971        -2.53321         3.19493
   N        5.54227        -1.24393         3.46157
   O        4.96350        -0.44296         4.15469
   O        6.64488        -1.09580         2.99576
   C        5.53970        -3.59919         4.06076
   C        4.91000        -4.95431         3.76946
   C        5.17329        -5.38625         2.32133
   N        4.07706        -6.35079         1.92717
   O        3.78065        -7.16722         2.75855
   O        3.57752        -6.24008         0.83957
   C        5.85380        -5.58460        -0.62582
   C        5.96553        -5.78695        -1.96220
   C        6.22621        -7.09031        -2.45311
   N        6.34550        -7.42075        -3.77757
   C        6.34105        -6.50802        -4.89413
   C        7.66267        -5.75324        -5.01347
   C        6.53084        -8.81019        -3.96396
   O        6.64949        -9.32774        -5.05118
   C        6.52331        -9.34531        -2.61889
   C        6.34295        -8.27255        -1.71609
   C        6.31977        -8.82970        -0.38538
   O        6.23800        -8.30220         0.71456
   N        6.45462       -10.21161        -0.56874
   C        6.49053       -11.07992         0.58464
   C        5.09217       -11.53793         0.99326
   C        6.57189       -10.53984        -1.90361
   C        6.72796       -11.80841        -2.52040
   C        6.49304       -13.03489        -1.99245
   C        6.65001       -14.28736        -2.66785
   C        7.30857       -14.52152        -3.87097
   F        7.91665       -13.51603        -4.51763
   C        7.41189       -15.78682        -4.46854
   F        8.08197       -15.83154        -5.62630
   C        6.86273       -16.94502        -3.92566
   C        6.18937       -16.74645        -2.68684
   C        6.09544       -15.45427        -2.06936
   N        5.43343       -15.49964        -0.91570
   S        4.97521       -17.01590        -0.63772
   N        5.59087       -17.68748        -1.96074
   C        6.91498       -18.26554        -4.47696
   C        7.55019       -18.67077        -5.60354
   C        7.50728       -20.02977        -6.01664
   C        8.13745       -20.53528        -7.10748
   C        8.05345       -21.96384        -7.49230
   O        7.43927       -22.83475        -6.91664
   C        8.87454       -22.09866        -8.71833
   C        9.13381       -23.22054        -9.48454
   C        9.94880       -23.07862       -10.59984
   C       10.48994       -21.84507       -10.93853
   C       10.23156       -20.71663       -10.17209
   C        9.42026       -20.85436        -9.06056
   C        8.99490       -19.82331        -8.08200
   O        9.29909       -18.65115        -8.09149
   H        0.48938         3.01694         4.80146
   H        1.63476         4.84071         3.63483
   H        3.33617         4.35386         1.88892
   H        1.00539         0.64714         4.25800
   H        5.40179        -0.11232        -0.17434
   H        3.80800        -2.40276         3.48338
   H        5.41199        -3.35209         5.11565
   H        6.60825        -3.61778         3.83211
   H        3.83245        -4.88327         3.93610
   H        5.30027        -5.70635         4.45422
   H        6.08757        -5.98980         2.25757
   H        6.01393        -6.43300         0.02369
   H        5.81551        -4.97515        -2.65927
   H        5.50325        -5.81189        -4.79512
   H        6.18645        -7.12317        -5.78498
   H        7.85566        -5.16117        -4.12148
   H        7.63140        -5.09052        -5.87369
   H        8.48080        -6.45680        -5.14663
   H        6.91945       -10.48863         1.39999
   H        7.14990       -11.92490         0.37806
   H        4.49464       -10.67516         1.27737
   H        5.15921       -12.20988         1.84439
   H        4.58928       -12.05259         0.17764
   H        7.01761       -11.71769        -3.55846
   H        6.08905       -13.14828        -0.99848
   H        6.37583       -18.99756        -3.88752
   H        8.11253       -17.99048        -6.22476
   H        6.92814       -20.72601        -5.41724
   H        8.70974       -24.17538        -9.21362
   H       10.16774       -23.94030       -11.21330
   H       11.12168       -21.76429       -11.81083
   H       10.64743       -19.75383       -10.42639
*
