# ORCA input file
# SCF done       -166.587669943146          0.000744965130
! CAM-B3LYP def2-SVP def2/J RIJCOSX Grid4 TightSCF
%maxcore 5000
%tddft
    Mode sTDDFT
    Ethresh 5.0
    maxcore 5000
end

%pal
  nprocs 6
  end
* xyz 0 1
   C        6.54224         3.01377        -1.74266
   C        6.51462         4.23276        -2.34974
   S        4.92858         4.61898        -2.90328
   C        4.27801         3.11259        -2.30210
  Cl        2.64264         2.71541        -2.48733
   C        5.25994         2.37089        -1.71364
   C        5.36348         1.08199        -1.02992
   O        4.48688         0.31363        -0.71857
   C        6.82872         0.92891        -0.73154
   C        7.52482         2.16179        -1.10791
   C        8.83951         2.46977        -0.91550
   C        9.37650         3.70639        -1.33815
   N        9.82255         4.70678        -1.67687
   C        9.78566         1.62993        -0.28997
   N       10.59648         0.98943         0.20727
   C        7.33493        -0.20299        -0.22450
   C        6.49109        -1.38955        -0.01164
   N        6.07532        -2.02832        -1.09644
   C        5.29953        -3.08824        -0.87190
   N        4.93960        -3.50283         0.34378
   C        5.44552        -2.81995         1.34422
   N        6.23786        -1.76383         1.23617
   C        4.83654        -3.88584        -1.98757
   N        4.66703        -3.44469        -3.27120
   C        4.77144        -2.08801        -3.75257
   C        3.55048        -1.25790        -3.36767
   C        4.23946        -4.48608        -4.12133
   O        3.99796        -4.32843        -5.30020
   C        4.19142        -5.64891        -3.26401
   C        4.54904        -5.23672        -1.94876
   C        4.58415        -6.41541        -1.10099
   O        4.85727        -6.59158         0.06155
   N        4.23214        -7.46875        -1.97871
   C        4.07913        -8.81836        -1.49451
   C        2.60897        -9.20019        -1.34089
   C        4.00594        -7.02533        -3.25817
   C        3.70337        -7.89668        -4.34510
   C        3.37181        -7.46521        -5.57770
   C        3.12114        -8.38764        -6.66725
   N        2.59998        -7.87556        -7.78367
   C        2.39149        -8.70265        -8.78881
   C        2.69696       -10.05397        -8.72034
   C        3.24017       -10.50738        -7.51250
   N        3.43724        -9.66974        -6.49648
   C        3.69080       -11.86803        -7.28506
   C        3.44259       -12.92539        -8.07542
   C        3.92708       -14.24890        -7.82032
   C        5.10480       -14.64198        -7.28038
   C        5.23484       -16.06068        -6.80440
   O        4.46687       -16.96197        -7.03479
   C        6.44896       -16.06155        -5.98378
   C        7.12196       -16.94395        -5.19153
   S        8.54600       -16.19230        -4.51226
   C        8.22224       -14.70060        -5.31653
   C        7.08271       -14.77700        -6.05554
   C        6.33122       -13.92413        -6.95820
   C        6.82701       -12.78153        -7.52393
   C        8.07763       -12.25464        -7.13478
   N        9.08429       -11.80915        -6.81309
   C        6.22218       -12.05760        -8.56962
   N        5.80482       -11.44973        -9.44897
  Cl        6.72473       -18.55375        -4.84812
   H        7.31399         4.92861        -2.51182
   H        8.37835        -0.31111         0.03648
   H        5.19376        -3.14454         2.34560
   H        4.84093        -2.16439        -4.84161
   H        5.68068        -1.63730        -3.35089
   H        2.64042        -1.74639        -3.70847
   H        3.61438        -0.27757        -3.83305
   H        3.50051        -1.12530        -2.28938
   H        4.57111        -8.84300        -0.51792
   H        4.59261        -9.51238        -2.16612
   H        2.12036        -8.52027        -0.64744
   H        2.52890       -10.21096        -0.95041
   H        2.09278        -9.15090        -2.29721
   H        3.75590        -8.96253        -4.17245
   H        3.27776        -6.41521        -5.81395
   H        1.96942        -8.26228        -9.68313
   H        2.55140       -10.70659        -9.56326
   H        4.26597       -11.99167        -6.37633
   H        2.77492       -12.82788        -8.92095
   H        3.24365       -15.06073        -8.05469
   H        8.89054       -13.87371        -5.17987
*
