# ORCA input file
# SCF done       -229.552998764407          0.000675122072
! CAM-B3LYP def2-SVP def2/J RIJCOSX Grid4 TightSCF
%maxcore 5000
%tddft
    Mode sTDDFT
    Ethresh 5.0
    maxcore 5000
end

%pal
  nprocs 6
  end
* xyz 0 1
   C       -0.63048         2.99062        -5.81487
   C        0.59723         2.38164        -5.83168
   C        1.11421         1.68552        -6.94490
   N        1.58761         1.10949        -7.81730
   C        1.53027         2.40926        -4.77368
   N        2.34528         2.42385        -3.96389
   C       -1.55675         3.08180        -6.93697
   C       -2.63864         3.93329        -6.56539
   C       -3.65859         4.22442        -7.42495
   C       -3.64708         3.66199        -8.72072
   C       -2.57454         2.80260        -9.09819
   C       -1.53013         2.52211        -8.18688
   C       -2.57608         2.24468       -10.39261
   C       -3.58613         2.52231       -11.27352
   C       -4.64055         3.36924       -10.90110
   C       -4.67042         3.92718        -9.65159
   C       -2.44198         4.39216        -5.18461
   O       -3.15370         5.15249        -4.55444
   C       -1.21336         3.73305        -4.70937
   C       -0.74345         3.72628        -3.42791
   C       -1.18938         4.43498        -2.29347
   S       -2.42318         5.65483        -2.27344
   C       -2.14007         5.98550        -0.59441
   C       -1.11068         5.19568        -0.07970
   C       -0.59905         4.30643        -1.02412
   C        0.39853         3.23724        -0.67661
   N       -0.37279         1.94711        -0.78468
   O       -1.10905         1.67087         0.12703
   O       -0.23193         1.30688        -1.79373
   C        0.94299         3.37099         0.74598
   C        0.97559         4.82324         1.19738
   C       -0.45477         5.37464         1.25512
   N       -0.31776         6.82100         1.57638
   O        0.04341         7.55411         0.69405
   O       -0.53056         7.14587         2.71984
   C       -2.99966         6.94514         0.00171
   C       -3.31891         7.09425         1.31536
   C       -4.25873         8.07126         1.73059
   N       -4.67700         8.24630         3.02480
   C       -4.23102         7.53287         4.19833
   C       -2.92838         8.10187         4.75306
   C       -5.62924         9.28331         3.13779
   O       -6.14648         9.61264         4.18251
   C       -5.79196         9.75810         1.78106
   C       -4.94986         9.00266         0.94371
   C       -5.14389         9.48242        -0.40756
   O       -4.64721         9.15170        -1.46575
   N       -6.10064        10.50765        -0.29275
   C       -6.53973        11.18942        -1.48777
   C       -7.84920        10.61343        -2.02224
   C       -6.50812        10.68306         1.01089
   C       -7.43473        11.58789         1.57143
   C       -8.25077        12.48409         0.94597
   C       -9.13371        13.36740         1.60518
   C       -9.96256        14.26784         0.96116
   C      -10.68862        15.01635         1.92252
   C      -10.25525        14.50816         3.24047
   C       -9.33621        13.52907         3.04000
   C      -10.70467        14.94670         4.49168
   N      -11.05257        15.28871         5.53150
   C      -11.59369        16.02643         1.67846
   C      -12.26912        16.84669         2.63292
   C      -12.99846        17.80535         1.96491
   C      -12.86391        17.55800         0.53610
   C      -12.02869        16.49956         0.35715
   C      -11.69309        15.95204        -0.88561
   N      -11.43958        15.51620        -1.91831
   C      -13.75901        18.84736         2.56533
   C      -13.92259        20.09182         2.03715
   C      -14.78604        21.15503         2.51821
   C      -15.78888        21.02723         3.44299
   C      -16.61996        22.08862         3.85862
   N      -17.32433        22.91237         4.23672
   C      -16.14771        19.81972         4.07864
   N      -16.50590        18.87085         4.61659
   C      -14.45405        22.36680         1.77867
   C      -13.43176        22.05998         0.83495
   C      -13.05855        20.64274         0.95595
   O      -12.17442        20.06779         0.35738
   C      -12.92058        23.00258        -0.01019
   C      -13.42217        24.32173         0.04649
   C      -14.44224        24.63906         0.98977
   C      -14.94808        23.64246         1.85576
   C      -14.93368        25.95951         1.03851
   C      -14.44368        26.92035         0.19630
   C      -13.43950        26.60648        -0.73181
   C      -12.93955        25.33463        -0.80527
   H       -4.46362         4.87618        -7.11961
   H       -0.73489         1.86517        -8.50164
   H       -1.76167         1.59426       -10.67578
   H       -3.57765         2.09055       -12.26298
   H       -5.42902         3.57733       -11.60866
   H       -5.47954         4.58007        -9.35879
   H        0.10092         3.07646        -3.24829
   H        1.20074         3.18147        -1.41830
   H        1.94578         2.94687         0.79567
   H        0.29560         2.80573         1.42181
   H        1.55595         5.42221         0.49122
   H        1.44034         4.89433         2.18183
   H       -1.01284         4.90767         2.07386
   H       -3.50446         7.58095        -0.71592
   H       -2.90403         6.45360         2.07876
   H       -4.12725         6.47051         3.96319
   H       -5.02586         7.65235         4.94052
   H       -2.11380         7.99704         4.04109
   H       -2.66078         7.57588         5.66504
   H       -3.05643         9.15577         4.98643
   H       -5.75072        11.02779        -2.22877
   H       -6.61532        12.26107        -1.29203
   H       -7.69979         9.57759        -2.31672
   H       -8.17213        11.17847        -2.89216
   H       -8.63452        10.64645        -1.27022
   H       -7.47715        11.51494         2.65066
   H       -8.26801        12.56282        -0.12981
   H      -10.04163        14.39450        -0.10064
   H       -8.83797        12.96579         3.80662
   H      -12.16043        16.76708         3.69738
   H      -13.39130        18.08311        -0.23629
   H      -14.19199        18.61877         3.53167
   H      -12.14508        22.74302        -0.71559
   H      -15.71469        23.91639         2.56311
   H      -15.70725        26.19661         1.75403
   H      -14.82757        27.92847         0.24065
   H      -13.06404        27.37724        -1.38810
   H      -12.16626        25.08648        -1.51750
*
