# ORCA input file
# SCF done       -190.176514377695          0.000491302082
! CAM-B3LYP def2-SVP def2/J RIJCOSX Grid4 TightSCF
%maxcore 5000
%tddft
    Mode sTDDFT
    Ethresh 5.0
    maxcore 5000
end

%pal
  nprocs 6
  end
* xyz 0 1
   C        1.29704        10.08833         0.55281
   C        0.82607        10.70174         1.68315
   C        1.48178        11.77195         2.32868
   N        1.96992        12.63854         2.90141
   C       -0.39552        10.40232         2.32450
   N       -1.39120        10.24422         2.87387
   C        2.47754        10.48841        -0.20362
   C        2.52342         9.72898        -1.40896
   C        3.50990         9.90367        -2.33684
   C        4.51911        10.86190        -2.09520
   C        4.48644        11.61944        -0.88831
   C        3.45065        11.41775         0.05278
   C        5.50024        12.57108        -0.65686
   C        6.49777        12.76790        -1.57290
   C        6.52844        12.02224        -2.76082
   C        5.56018        11.08930        -3.01653
   C        1.38690         8.79911        -1.44141
   O        1.10828         8.01784        -2.33102
   C        0.66892         8.99027        -0.16488
   C       -0.34321         8.20534         0.30568
   C       -1.04543         7.15896        -0.32504
   S       -0.88705         6.60341        -1.99100
   C       -2.17930         5.47701        -1.80227
   C       -2.69940         5.49699        -0.54745
   C       -2.05706         6.44374         0.30333
   C       -2.65677         6.40150         1.60208
   C       -3.66258         5.47233         1.58687
   C       -3.77002         4.84594         0.22714
   O       -4.58145         4.01200        -0.09604
   C       -4.55330         5.09395         2.61719
   S       -5.88419         4.01343         2.26677
   C       -4.58499         5.47038         3.94518
   C       -3.78289         6.28430         4.87387
   O       -2.76029         6.89791         4.69093
   N       -4.44573         6.18837         6.09183
   C       -4.00374         6.88299         7.28295
   C       -4.51771         8.31792         7.30823
   C       -5.58799         5.39550         6.05306
   O       -6.31177         5.17169         6.99072
   C       -5.66438         4.92258         4.66095
   C       -6.48992         4.10941         3.91228
   C       -7.66579         3.46467         4.36476
   C       -8.45020         2.66506         3.60306
   C       -9.65245         2.08520         4.08466
   O      -10.10186         2.33416         5.32879
   C      -11.27751         1.68991         5.51000
   C      -11.60273         0.98614         4.34771
   C      -10.55085         1.24297         3.42665
   C      -10.43010         0.75426         2.11868
   N      -10.32423         0.35974         1.04781
   C      -12.71193         0.16560         4.09545
   N      -13.59222        -0.52320         3.84233
   C      -11.93238         1.84380         6.75701
   C      -13.15400         1.34545         7.07761
   C      -13.71561         1.58610         8.35644
   C      -14.95703         1.18900         8.75570
   C      -15.56751         1.41081        10.05608
   C      -15.01725         2.07468        11.12192
   C      -15.66627         2.25838        12.36176
   N      -16.13254         2.44721        13.39373
   C      -13.74084         2.67458        11.15286
   N      -12.72007         3.18948        11.26297
   C      -16.89228         0.80160        10.03474
   C      -17.11074         0.22303         8.75179
   C      -15.92857         0.44475         7.90294
   O      -15.78645         0.10054         6.75087
   C      -18.27315        -0.41969         8.43648
   C      -19.29256        -0.51612         9.40955
   C      -19.08295         0.05949        10.69629
   C      -17.86855         0.71863        10.99329
   C      -20.10698        -0.04127        11.66030
   C      -21.28179        -0.67922        11.36904
   C      -21.48692        -1.24571        10.10190
   C      -20.51361        -1.16608         9.14306
   H        3.51879         9.31828        -3.24423
   H        3.45665        12.00424         0.95774
   H        5.47188        13.14393         0.25830
   H        7.26897        13.50015        -1.38697
   H        7.32287        12.19057        -3.47222
   H        5.57836        10.51215        -3.92934
   H       -0.68660         8.38948         1.31719
   H       -2.47385         4.86009        -2.62956
   H       -2.37188         6.99543         2.45298
   H       -2.91105         6.87292         7.28513
   H       -4.38315         6.32373         8.14119
   H       -4.14250         8.86560         6.44695
   H       -4.17711         8.81351         8.21274
   H       -5.60514         8.32924         7.29123
   H       -7.93142         3.65931         5.39641
   H       -8.19214         2.44421         2.57645
   H      -11.38435         2.43557         7.48042
   H      -13.72557         0.76990         6.36417
   H      -13.09327         2.13444         9.05233
   H      -18.41119        -0.84878         7.45522
   H      -17.74288         1.14268        11.97666
   H      -19.94438         0.39674        12.63416
   H      -22.06025        -0.75072        12.11376
   H      -22.42019        -1.74541         9.88953
   H      -20.66560        -1.60032         8.16585
*
