# ORCA input file
# SCF done       -201.466566861154          0.000581861970
! CAM-B3LYP def2-SVP def2/J RIJCOSX Grid4 TightSCF
%maxcore 5000
%tddft
    Mode sTDDFT
    Ethresh 5.0
    maxcore 5000
end

%pal
  nprocs 6
  end
* xyz 0 1
   C       -1.23641         1.68423         3.29106
   N       -1.03423         1.17132         2.04838
   C       -0.73736        -0.20531         1.73762
   C        0.47356        -0.72072         2.50655
   C       -1.14190         2.17099         1.06382
   O       -0.97833         1.95977        -0.13101
   C       -1.44803         3.36711         1.79612
   C       -1.48535         3.02454         3.18275
   C       -1.78706         4.22727         3.93215
   O       -1.92501         4.44191         5.11487
   N       -1.92903         5.21960         2.94056
   C       -2.17763         6.59391         3.29916
   C       -0.91169         7.44184         3.20396
   C       -1.73412         4.72506         1.67103
   C       -1.89211         5.50865         0.50654
   C       -1.70980         5.02856        -0.75528
   C       -1.97843         5.77748        -1.91947
   S       -2.81588         7.30461        -1.79726
   C       -2.95844         7.45920        -3.47554
   C       -2.37719         6.40649        -4.15471
   C       -1.77212         5.45106        -3.27181
   C       -1.04559         4.36836        -3.82825
   C       -1.07880         4.18551        -5.20685
   C       -1.73213         5.10593        -6.05442
   C       -2.34199         6.21435        -5.55192
   O       -0.41561         3.12798        -5.72540
   C       -0.18853         3.49728        -3.03772
   S       -0.31812         1.78365        -3.15612
   C        0.96489         1.52833        -2.01485
   C        1.49708         2.74624        -1.61352
   C        0.84813         3.85223        -2.20601
   C        1.40206         5.22666        -1.97044
   N        1.04716         6.17633        -3.04441
   O        0.51517         7.20938        -2.71458
   O        1.34769         5.88139        -4.17543
   C        2.93191         5.09762        -1.98458
   C        3.40167         4.25241        -0.80807
   C        2.58164         2.96922        -0.60267
   N        1.85146         3.06150         0.70060
   O        1.29523         4.09978         0.95902
   O        1.84795         2.07780         1.40095
   C        1.26112         0.16903        -1.71273
   C        1.98029        -0.31858        -0.67559
   C        2.20607        -1.70788        -0.44144
   C        1.45374        -2.77611        -0.83915
   C        1.96274        -3.95892        -0.19027
   C        1.44989        -5.24820        -0.37851
   N        1.02287        -6.30309        -0.53244
   C        3.01189        -3.61654         0.63315
   C        3.25272        -2.22032         0.47665
   C        4.33391        -1.49817         0.92892
   C        5.25214        -1.82900         2.03777
   C        6.24271        -0.88137         2.04623
   C        6.00357         0.04479         0.97247
   C        4.84774        -0.31461         0.31763
   C        6.78946         1.15805         0.65336
   N        7.39157         2.09747         0.38024
   C        5.04123        -2.86453         2.99363
   C        6.01341        -3.37302         3.78770
   C        5.78111        -4.35196         4.80178
   C        4.62886        -4.47748         5.52336
   C        4.84704        -5.42496         6.59272
   C        3.89315        -5.74937         7.56747
   N        3.10387        -6.01190         8.35847
   C        6.12327        -5.90844         6.51194
   C        6.75011        -5.34013         5.34584
   C        7.92843        -5.74499         4.77888
   C        8.91900        -6.69569         5.33898
   C       10.06953        -6.54195         4.64021
   C        9.83692        -5.61560         3.54190
   C        8.55006        -5.17327         3.60513
   C       10.79487        -5.27686         2.57808
   N       11.58762        -5.00141         1.79452
   C        8.75806        -7.69872         6.37675
   C        7.73495        -8.54149         6.46180
   H       -1.19524         1.06201         4.16461
   H       -0.54465        -0.23465         0.66131
   H       -1.61530        -0.82584         1.95341
   H        1.30960        -0.03954         2.37575
   H        0.75065        -1.70335         2.13426
   H        0.25510        -0.80398         3.56814
   H       -2.52986         6.57378         4.33457
   H       -2.97028         7.00410         2.66628
   H       -0.15073         7.04414         3.87053
   H       -1.12992         8.46563         3.49484
   H       -0.51709         7.43943         2.19049
   H       -2.19528         6.53912         0.63142
   H       -1.38191         4.00638        -0.88152
   H       -3.45896         8.30649        -3.90046
   H       -1.69952         4.93379        -7.12151
   H       -2.79759         6.94641        -6.19942
   H       -0.44373         3.15621        -6.68959
   H        1.04374         5.65197        -1.02572
   H        3.39562         6.08355        -1.92370
   H        3.22404         4.63779        -2.93145
   H        3.33186         4.85615         0.09963
   H        4.44975         3.98970        -0.95241
   H        3.23083         2.09623        -0.52834
   H        0.82345        -0.53765        -2.40660
   H        2.37743         0.34175         0.07681
   H        0.58998        -2.76681        -1.47620
   H        3.62231        -4.30693         1.18230
   H        7.05079        -0.79077         2.74733
   H        4.48209         0.12674        -0.58945
   H        4.04271        -3.27168         3.06190
   H        7.02122        -2.99919         3.68308
   H        3.72447        -3.91169         5.40058
   H        6.57724        -6.60304         7.18900
   H       10.99804        -7.05655         4.80366
   H        8.07997        -4.52136         2.89750
   H        9.60558        -7.81111         7.04205
   H        6.90453        -8.50289         5.77562
   H        7.70057        -9.31193         7.21271
*
