# ORCA input file
# SCF done       -156.389602658605          0.000579000564
! CAM-B3LYP def2-SVP def2/J RIJCOSX Grid4 TightSCF
%maxcore 5000
%tddft
    Mode sTDDFT
    Ethresh 5.0
    maxcore 5000
end

%pal
  nprocs 6
  end
* xyz 0 1
   C        5.95931        -0.12230        -2.12638
   N        5.89715        -1.07932        -2.99917
   C        6.07704        -0.48283        -4.21784
   C        6.25699         0.96880        -4.05970
   C        6.46221         1.62140        -5.36178
   O        6.63812         2.79454        -5.59489
   C        6.40196         0.47657        -6.29746
   C        6.16257        -0.78552        -5.54643
   N        6.11530        -1.84220        -6.40099
   C        6.30607        -1.33414        -7.58738
   C        6.49494         0.11155        -7.59651
   C        6.18799         1.20719        -2.71433
   C        6.31589         2.42307        -1.99531
   S        6.57859         3.97087        -2.78019
   C        6.60789         4.62844        -1.15407
   N        6.42822         3.71286        -0.23133
   N        6.26793         2.51202        -0.69166
   C        6.82474         6.00673        -0.89052
   C        6.91667         6.48175         0.37738
   C        7.16820         7.84426         0.67292
   N        7.29082         8.33761         1.95135
   C        7.10511         7.60122         3.17891
   C        5.62719         7.37307         3.48522
   C        7.57659         9.71131         1.96106
   O        7.73349        10.35924         2.97840
   C        7.63261        10.07694         0.56217
   C        7.37338         8.91109        -0.20073
   C        7.43798         9.27128        -1.59995
   O        7.29028         8.62470        -2.61663
   N        7.74301        10.64501        -1.59064
   C        7.84281        11.39347        -2.82079
   C        6.58278        12.21134        -3.09312
   C        7.86260        11.13737        -0.31360
   C        8.19935        12.48614        -0.01882
   C        8.32595        12.93532         1.25159
   C        8.69690        14.26816         1.64536
   C        8.88495        15.31811         0.74448
   C        9.26826        16.57454         1.17855
   N        9.48546        17.56666         0.15381
   O        8.94457        17.38248        -0.91623
   O       10.19691        18.51520         0.40861
   C        9.48366        16.85528         2.54337
   C        9.27754        15.79321         3.43830
   C        8.89780        14.54491         3.00890
   C        9.84497        18.16412         3.03185
   C       10.58647        18.36640         4.14306
   C       10.96221        19.64655         4.63774
   N       11.71633        19.73981         5.72881
   C       11.90686        21.05314         5.93157
   C       11.21049        21.85492         4.88968
   C       11.43009        23.30111         5.11933
   O       11.00307        24.23735         4.48743
   C       12.29505        23.30312         6.31367
   C       12.55243        21.91768         6.77522
   N       13.35229        21.92189         7.87076
   C       13.60282        23.18499         8.10706
   C       12.97719        24.10126         7.17281
   C       10.62044        20.95871         4.07188
   H        5.85041        -0.30795        -1.07288
   H        6.31423        -1.96842        -8.45709
   H        6.66676         0.71011        -8.46913
   H        6.92827         6.66487        -1.74190
   H        6.80964         5.78310         1.19417
   H        7.55464         8.21146         3.96727
   H        7.64073         6.65015         3.11925
   H        5.11371         8.32752         3.57395
   H        5.52639         6.83601         4.42407
   H        5.15041         6.79357         2.69803
   H        7.97643        10.65211        -3.61353
   H        8.72721        12.03602        -2.78959
   H        5.72219        11.55174        -3.17257
   H        6.69226        12.75285        -4.02844
   H        6.39739        12.92636        -2.29448
   H        8.37127        13.14282        -0.85859
   H        8.15439        12.24173         2.06428
   H        8.74533        15.17737        -0.31636
   H        9.39508        15.98004         4.49406
   H        8.74878        13.75143         3.72586
   H        9.52493        19.01709         2.45114
   H       10.98411        17.53532         4.70924
   H       14.22717        23.46811         8.93704
   H       13.06273        25.16954         7.19542
   H       10.03452        21.12826         3.19101
*
