# ORCA input file
# SCF done       -157.648777227374          0.000545686381
! CAM-B3LYP def2-SVP def2/J RIJCOSX Grid4 TightSCF
%maxcore 5000
%tddft
    Mode sTDDFT
    Ethresh 5.0
    maxcore 5000
end

%pal
  nprocs 6
  end
* xyz 0 1
   C        0.30338         0.28694         0.01475
   C       -0.96632         0.77428        -0.01571
   S       -2.12503        -0.48965         0.17686
   C       -0.87335        -1.70505         0.29964
  Cl       -1.25353        -3.34126         0.51908
   C        0.35913        -1.13433         0.19564
   C        1.75887        -1.57716         0.21550
   O        2.19854        -2.69566         0.34669
   C        2.54957        -0.32414         0.03003
   C        1.65234         0.80997        -0.08644
   C        1.97120         2.13132        -0.25733
   C        0.97241         3.12255        -0.35643
   N        0.17184         3.93992        -0.43977
   C        3.27951         2.64535        -0.34912
   N        4.32617         3.11010        -0.42767
   C        3.91238        -0.32738        -0.02613
   C        4.66039        -1.47869         0.09115
   C        5.37351        -2.46787         0.18108
   C        6.10279        -3.58191         0.27406
   C        6.74971        -4.61524         0.34960
   C        7.49141        -5.77811         0.40742
   N        6.99295        -6.96794         0.88179
   C        5.64774        -7.17579         1.36000
   C        4.64140        -7.23601         0.21462
   C        7.94671        -8.00012         0.80173
   O        7.74275        -9.14007         1.16031
   C        9.11406        -7.35225         0.23846
   C        8.80730        -5.99037         0.01089
   C        9.97680        -5.36206        -0.56312
   O       10.20506        -4.22795        -0.91561
   N       10.92366        -6.41408        -0.66367
   C       12.26587        -6.10971        -1.10017
   C       13.27233        -6.17731         0.04497
   C       10.41696        -7.60060        -0.18833
   C       11.00151        -8.89477        -0.12843
   C       12.14554        -9.34241        -0.69871
   C       12.62233       -10.67893        -0.57979
   S       14.02561       -11.15849        -1.47640
   C       13.99121       -12.74950        -0.79598
   C       14.95323       -13.70998        -1.26768
   O       15.09911       -14.84309        -0.86175
   C       12.91804       -12.89208         0.09099
   C       12.13944       -11.72945         0.17577
   C       12.57714       -14.09597         0.81464
   C       13.39521       -14.94598         1.46014
   C       12.89014       -16.31047         1.83905
   O       11.73650       -16.65320         1.90234
   C       14.11126       -17.09488         2.04078
   C       14.43600       -18.39958         2.26852
   S       16.17035       -18.58946         2.36681
   C       16.43762       -16.90552         2.10963
   C       15.26181       -16.24161         1.95057
   C       14.82731       -14.87904         1.73258
   C       15.58907       -13.76495         1.94208
   C       16.96450       -13.86163         2.24408
   N       18.08525       -13.92179         2.47974
   C       15.10356       -12.44329         1.92519
   N       14.75481       -11.34983         1.96065
  Cl       13.39226       -19.72069         2.44634
   H       -1.30515         1.78405        -0.13699
   H        4.46565         0.59211        -0.17510
   H        5.38508        -6.36816         2.05009
   H        5.65953        -8.12607         1.90059
   H        4.62053        -6.29360        -0.32824
   H        3.64866        -7.42759         0.61113
   H        4.90254        -8.03621        -0.47410
   H       12.21778        -5.08553        -1.48389
   H       12.55171        -6.76792        -1.92494
   H       13.00120        -5.46155         0.81722
   H       14.26301        -5.92778        -0.32448
   H       13.30466        -7.16914         0.48957
   H       10.38640        -9.59328         0.42359
   H       12.76153        -8.69544        -1.30294
   H       15.59444       -13.31089        -2.07651
   H       11.27513       -11.65457         0.81024
   H       11.52415       -14.36112         0.80960
   H       17.44021       -16.52763         2.07691
*
