# ORCA input file
# SCF done       -131.806379709657          0.000393251396
! CAM-B3LYP def2-SVP def2/J RIJCOSX Grid4 TightSCF
%maxcore 5000
%tddft
    Mode sTDDFT
    Ethresh 5.0
    maxcore 5000
end

%pal
  nprocs 6
  end
* xyz 0 1
   C        0.84103         0.65467        -0.59225
   C       -0.29273         1.35262        -0.87056
   S       -1.63034         0.29345        -1.12976
   C       -0.64160        -1.12363        -0.85673
  Cl       -1.29716        -2.68371        -0.94441
   C        0.64329        -0.76523        -0.58384
   C        1.91140        -1.43971        -0.27356
   O        2.13496        -2.62479        -0.18170
   C        2.88830        -0.32940        -0.08577
   C        2.23030         0.94558        -0.29207
   C        2.77172         2.20304        -0.22935
   C        1.98840         3.35368        -0.45569
   N        1.36389         4.29901        -0.63635
   C        4.12054         2.49172         0.05422
   N        5.21023         2.77462         0.27981
   C        4.19174        -0.55802         0.25117
   C        4.70378        -1.82228         0.43226
   C        5.20702        -2.92228         0.61444
   C        5.68420        -4.15281         0.81072
   C        6.10107        -5.28521         0.99752
   C        6.48320        -6.59885         1.19873
   O        7.68623        -6.90542         1.74186
   C        7.74908        -8.25188         1.83179
   C        6.58346        -8.82774         1.33630
   C        5.76329        -7.75881         0.92670
   C        4.40763        -7.82962         0.32543
   C        6.27092       -10.27647         1.25359
   C        8.91787        -8.83812         2.39261
   S        9.06331       -10.53791         2.65799
   C       10.66565       -10.35438         3.30042
   C       11.31836       -11.52438         3.81877
   O       12.44119       -11.58418         4.27490
   C       11.05388        -9.01098         3.30420
   C       10.04608        -8.16661         2.81676
   C       12.30426        -8.49096         3.80562
   C       13.54595        -8.98718         3.65926
   C       14.64443        -8.49148         4.55739
   O       14.62897        -7.48097         5.21451
   C       15.66595        -9.53893         4.47726
   C       16.84394        -9.83743         5.09573
   S       17.50228       -11.32983         4.46914
   C       16.18606       -11.52911         3.37263
   C       15.29266       -10.51126         3.48982
   C       14.04809       -10.10771         2.87164
   C       13.57391       -10.57170         1.67793
   C       14.20358       -11.63870         1.00194
   N       14.69667       -12.51056         0.44332
   C       12.46850       -10.03785         0.98809
   N       11.59954        -9.62204         0.36330
  Cl       17.64059        -8.96111         6.30596
   H       -0.44011         2.41200        -0.94167
   H        4.87941         0.26639         0.39670
   H        3.72685        -8.36510         0.98594
   H        4.44197        -8.36095        -0.62522
   H        4.01943        -6.82883         0.15464
   H        7.04241       -10.80032         0.69015
   H        5.31256       -10.42813         0.76562
   H        6.23356       -10.71743         2.24961
   H       10.67987       -12.42705         3.76807
   H       10.14659        -7.09919         2.73794
   H       12.22308        -7.59297         4.41102
   H       16.15527       -12.38897         2.73339
*
