# ORCA input file
# SCF done       -170.724320989171          0.000845861596
! CAM-B3LYP def2-SVP def2/J RIJCOSX Grid4 TightSCF
%maxcore 5000
%tddft
    Mode sTDDFT
    Ethresh 5.0
    maxcore 5000
end

%pal
  nprocs 6
  end
* xyz 0 1
   C        0.33197        -2.47811        -3.23029
   C       -0.49293        -2.34769        -4.30479
   S        0.12662        -3.19629        -5.67303
   C        1.52296        -3.75019        -4.77985
  Cl        2.70832        -4.71666        -5.50179
   C        1.48732        -3.28076        -3.50135
   C        2.31641        -3.38706        -2.30021
   O        3.25028        -4.12801        -2.10469
   C        1.64087        -2.49304        -1.29763
   C        0.38718        -2.01303        -1.85951
   C       -0.55866        -1.22282        -1.26315
   C       -1.71709        -0.81342        -1.95764
   N       -2.66687        -0.47535        -2.50487
   C       -0.50992        -0.74059         0.05971
   N       -0.52391        -0.31674         1.12647
   C        2.11567        -2.25234        -0.04893
   C        3.45604        -2.52212         0.34841
   S        3.86527        -2.97488         1.98570
   C        4.61035        -2.41494        -0.39408
   C        4.97173        -1.96464        -1.75163
   O        4.28609        -1.53662        -2.64648
   N        6.35251        -2.08695        -1.80071
   C        7.12485        -1.77765        -2.97828
   C        6.92250        -2.53137        -0.61472
   O        8.10903        -2.69748        -0.45293
   C        5.79231        -2.71505         0.31028
   C        5.57842        -3.06517         1.63575
   C        6.46516        -3.46175         2.66535
   C        7.80664        -3.59977         2.49092
   C        8.66652        -4.02041         3.53383
   N       10.02612        -4.16492         3.38512
   C       10.79954        -3.85471         2.20601
   C       11.01523        -2.35272         2.04328
   C       10.64117        -4.62490         4.56469
   O       11.83166        -4.83157         4.67529
   C        9.54413        -4.77020         5.49653
   C        8.35044        -4.38946         4.84211
   C        7.27067        -4.55734         5.78559
   O        6.07433        -4.36161         5.69715
   N        7.88840        -5.04651         6.95737
   C        7.08909        -5.26129         8.13951
   C        7.27336        -4.14358         9.16312
   C        9.24899        -5.17643         6.79475
   C       10.25390        -5.65877         7.67949
   C       10.14450        -6.15793         8.92983
   C       11.24212        -6.66135         9.72034
   C       10.96721        -7.20794        10.97427
   C       11.97353        -7.71893        11.77746
   N       11.57970        -8.21412        13.07112
   O       10.41473        -8.52116        13.21688
   O       12.42095        -8.28676        13.94319
   C       13.31795        -7.71706        11.36273
   C       13.57955        -7.15874        10.10384
   C       12.58449        -6.64312         9.30806
   C       14.38362        -8.30714        12.14645
   C       15.64448        -7.85122        12.16015
   C       16.71924        -8.44337        12.92627
   C       16.53293        -9.28998        14.02780
   N       17.54198        -9.83853        14.67553
   C       18.76096        -9.53419        14.26627
   N       19.06643        -8.71478        13.27511
   C       18.05894        -8.18122        12.61222
   H       -1.41886        -1.81463        -4.39222
   H        1.47299        -1.81284         0.70317
   H        6.85136        -2.45144        -3.79124
   H        8.17725        -1.90243        -2.72994
   H        6.93057        -0.75109        -3.29054
   H        6.02042        -3.66871         3.63035
   H        8.24405        -3.39196         1.52568
   H       10.30492        -4.26594         1.32254
   H       11.76339        -4.35360         2.34073
   H       10.06821        -1.83807         1.90159
   H       11.64109        -2.16830         1.17502
   H       11.50899        -1.94673         2.92306
   H        7.31506        -6.24142         8.56680
   H        6.05045        -5.26772         7.79437
   H        8.31513        -4.04903         9.46202
   H        6.67108        -4.34824        10.04407
   H        6.95113        -3.19689         8.73599
   H       11.23010        -5.61447         7.21416
   H        9.18382        -6.22351         9.41647
   H        9.95430        -7.23652        11.35002
   H       14.59569        -7.16298         9.74109
   H       12.84778        -6.22641         8.34903
   H       14.12383        -9.15660        12.76151
   H       15.91604        -6.97889        11.57883
   H       15.54626        -9.50939        14.41530
   H       19.58544        -9.98930        14.79867
   H       18.32404        -7.52415        11.79229
*
