# ORCA input file
# SCF done       -176.701432885791          0.000550888768
! CAM-B3LYP def2-SVP def2/J RIJCOSX Grid4 TightSCF
%maxcore 5000
%tddft
    Mode sTDDFT
    Ethresh 5.0
    maxcore 5000
end

%pal
  nprocs 6
  end
* xyz 0 1
   C       -1.62622        -1.52792         1.45457
   C       -2.70294        -1.39735         0.62475
   C       -2.69974        -1.80027        -0.72671
   N       -2.73531        -2.10995        -1.83103
   C       -3.97041        -0.95778         1.06588
   N       -5.03711        -0.70030         1.40104
   C       -0.38527        -2.23210         1.15378
   C        0.26030        -2.56437         2.38231
   C        1.44161        -3.24955         2.40963
   C        2.04531        -3.63051         1.19078
   C        1.40957        -3.29411        -0.04007
   C        0.18328        -2.59045        -0.03887
   C        2.02737        -3.67522        -1.24863
   C        3.21539        -4.35402        -1.24426
   C        3.84128        -4.68290        -0.03229
   C        3.26802        -4.33028         1.15906
   C       -0.52343        -2.03317         3.50926
   O       -0.32709        -2.16563         4.69364
   C       -1.59500        -1.20608         2.86996
   C       -2.18487        -0.22161         3.58727
   C       -2.87209         0.91451         3.08331
   S       -3.62127         2.09174         4.15442
   C       -3.94468         3.01820         2.69878
   N       -3.50593         2.42250         1.62134
   N       -2.92724         1.28184         1.83225
   C       -4.53714         4.30810         2.74041
   C       -4.78464         5.03253         1.62573
   C       -5.21788         6.38184         1.67680
   N       -5.38385         7.08402         2.76095
   C       -5.66143         8.35860         2.48945
   C       -5.72293         8.67480         1.14212
   S       -5.44446         7.30691         0.16982
   C       -6.05717        10.10749         1.02173
   C       -5.36962        10.62285         2.29889
   C       -5.82538         9.58151         3.37449
   C       -7.29176         9.84088         3.79689
   C       -8.20830         8.63069         3.65119
   C       -4.90391         9.50023         4.59831
   C       -5.26186         8.36494         5.55204
   N       -5.64450        12.04695         2.36830
   C       -6.10002        12.53263         1.07959
   S       -5.55600        11.33589        -0.21610
   C       -4.81287        12.88827         3.08345
   C       -3.67157        12.49099         3.79897
   N       -2.88547        13.35106         4.39812
   C       -3.20197        14.64082         4.34837
   N       -4.33020        15.11224         3.81311
   C       -5.10544        14.26107         3.18531
   C       -2.31147        15.59897         4.97344
   C       -0.96681        15.47865         5.00994
   C       -0.03214        16.29969         5.77406
   C       -0.34024        17.37927         6.55557
   C        0.61075        18.12324         7.28782
   N        1.33063        18.77280         7.90217
   C       -1.63007        17.92101         6.74621
   N       -2.63686        18.42774         6.96415
   C        1.30212        15.74354         5.58685
   C        1.22507        14.66306         4.66282
   C       -0.16647        14.49584         4.20912
   O       -0.54763        13.79187         3.30447
   C        2.32754        13.94659         4.29475
   C        3.58150        14.27260         4.85648
   C        3.66845        15.35148         5.78357
   C        2.51220        16.08286         6.13642
   C        4.92552        15.66936         6.33860
   C        6.04193        14.95614         5.99748
   C        5.95460        13.89340         5.08520
   C        4.75093        13.55925         4.52679
   H        1.91233        -3.49425         3.35026
   H       -0.27219        -2.33661        -0.98338
   H        1.54104        -3.42173        -2.17904
   H        3.68028        -4.64150        -2.17534
   H        4.77973        -5.21657        -0.04764
   H        3.74473        -4.58081         2.09542
   H       -2.01838        -0.24080         4.65823
   H       -4.74624         4.72833         3.71252
   H       -4.59968         4.60153         0.65320
   H       -7.14816        10.21374         1.08344
   H       -4.28630        10.47323         2.15549
   H       -7.69641        10.66808         3.21002
   H       -7.29602        10.16902         4.83676
   H       -8.32825         8.35081         2.60648
   H       -9.19141         8.86255         4.05469
   H       -7.80685         7.77502         4.18639
   H       -4.94860        10.44971         5.13660
   H       -3.87830         9.34273         4.25457
   H       -6.24153         8.51408         5.99687
   H       -4.52913         8.32363         6.35439
   H       -5.25462         7.41717         5.02275
   H       -5.68008        13.50744         0.83810
   H       -7.19280        12.57678         1.03478
   H       -3.36318        11.46142         3.88156
   H       -6.00805        14.67633         2.75485
   H       -2.80968        16.44591         5.42460
   H        2.24042        13.13472         3.58801
   H        2.61406        16.89499         6.83837
   H        4.98791        16.48806         7.04037
   H        6.99957        15.20624         6.42886
   H        6.84613        13.34140         4.82750
   H        4.67736        12.74257         3.82358
*
