# ORCA input file
# SCF done       -182.093813354728          0.000692160243
! CAM-B3LYP def2-SVP def2/J RIJCOSX Grid4 TightSCF
%maxcore 5000
%tddft
    Mode sTDDFT
    Ethresh 5.0
    maxcore 5000
end

%pal
  nprocs 6
  end
* xyz 0 1
   C        2.45529         1.46253        -1.33209
   C        1.54309         0.91570        -0.47539
   C        1.89441         0.13891         0.64858
   N        2.13367        -0.49668         1.57334
   C        0.14770         0.97206        -0.67967
   N       -0.98639         0.92598        -0.84904
   C        3.89068         1.21179        -1.32926
   C        4.41234         1.52421        -2.62044
   C        5.73338         1.34946        -2.92124
   C        6.60735         0.85737        -1.92669
   C        6.09504         0.55881        -0.63006
   C        4.72231         0.74243        -0.34789
   C        6.98097         0.07670         0.35511
   C        8.30791        -0.10450         0.07508
   C        8.81097         0.18838        -1.20170
   C        7.97899         0.65823        -2.18119
   C        3.33318         2.04643        -3.47388
   O        3.37546         2.35658        -4.64005
   C        2.15551         2.18322        -2.55867
   C        1.13951         3.00888        -2.89015
   C        0.15629         3.53969        -2.00551
   S       -1.36613         4.19603        -2.58198
   C       -1.69670         4.55724        -0.89797
   N       -0.71955         4.21274        -0.11181
   N        0.28879         3.65319        -0.71531
   C       -2.93085         5.15225        -0.47979
   C       -3.18462         5.40720         0.80774
   C       -4.39829         6.03712         1.38380
   S       -3.92843         7.75764         1.94767
   C       -5.26836         8.55046         1.00941
   C       -6.35949         7.48816         0.85205
   C       -5.60609         6.20523         0.46685
   C       -7.29387         7.84566        -0.32765
   O       -6.93861         8.55839        -1.23483
   N       -8.48789         7.22681        -0.28660
   N       -7.11295         7.28263         2.06990
   C       -7.96017         8.24283         2.54853
   C       -8.39845         8.29152         3.81946
   C       -9.39392         9.19759         4.32872
   C      -10.07455        10.11943         3.53101
   C      -11.04664        10.94893         4.05940
   N      -11.65378        11.87845         3.14379
   O      -11.65682        11.57495         1.96758
   O      -12.11324        12.91149         3.58453
   C      -11.40961        10.90255         5.42097
   C      -10.70769         9.98059         6.21277
   C       -9.73602         9.16257         5.69087
   C      -12.50886        11.65993         5.95787
   C      -12.66427        11.98646         7.26053
   C      -13.77787        12.70297         7.78297
   C      -15.06459        12.68493         7.33012
   C      -16.14455        13.51381         7.84069
   C      -16.01118        14.64444         8.60363
   C      -17.09641        15.42769         9.04965
   N      -17.93526        16.10079         9.45145
   C      -14.78917        15.20001         9.03838
   N      -13.84251        15.72448         9.42277
   C      -17.40181        12.97992         7.33257
   C      -17.11220        11.86997         6.49038
   C      -15.65579        11.66043         6.42433
   O      -15.08987        10.78473         5.80471
   C      -18.09594        11.16301         5.86105
   C      -19.44318        11.54514         6.04513
   C      -19.74309        12.65252         6.89002
   C      -18.70240        13.36199         7.53220
   C      -21.09137        13.02466         7.06722
   C      -22.09536        12.33925         6.43921
   C      -21.79855        11.24953         5.60693
   C      -20.50069        10.86104         5.41407
   H        6.10765         1.58585        -3.90624
   H        4.36030         0.51975         0.64375
   H        6.58859        -0.15005         1.33543
   H        8.97809        -0.47501         0.83614
   H        9.86097         0.04022        -1.40473
   H        8.36050         0.88553        -3.16581
   H        1.11115         3.36345        -3.91413
   H       -3.63488         5.35511        -1.27275
   H       -2.41154         5.17509         1.52749
   H       -4.66697         5.50453         2.30105
   H       -4.90418         8.87113         0.03337
   H       -5.61143         9.41570         1.57385
   H       -5.27875         6.32467        -0.56538
   H       -6.25791         5.33303         0.52661
   H       -8.77302         6.68085         0.50745
   H       -9.15259         7.41114        -1.02029
   H       -6.62724         6.75176         2.78101
   H       -8.30898         8.93995         1.80046
   H       -7.99532         7.58514         4.53350
   H       -9.85786        10.21387         2.47841
   H      -10.96973         9.89012         7.25515
   H       -9.22765         8.46308         6.33844
   H      -13.24162        12.01785         5.25151
   H      -11.86580        11.79131         7.96524
   H      -13.56685        13.29335         8.66712
   H      -17.84748        10.32566         5.22584
   H      -18.96336        14.19107         8.17046
   H      -21.31500        13.86534         7.70750
   H      -23.12466        12.63356         6.57968
   H      -22.60332        10.71984         5.11934
   H      -20.26542        10.02318         4.77402
*
