# ORCA input file
# SCF done       -185.925722916978          0.000318430518
! CAM-B3LYP def2-SVP def2/J RIJCOSX Grid4 TightSCF
%maxcore 5000
%tddft
    Mode sTDDFT
    Ethresh 5.0
    maxcore 5000
end

%pal
  nprocs 6
  end
* xyz 0 1
   C        2.64016         3.38661         1.05971
   C        2.03247         3.06816         2.24311
   C        2.40010         3.61619         3.48971
   N        2.63550         4.04262         4.52842
   C        0.98324         2.13432         2.35253
   N        0.12997         1.37782         2.48868
   C        3.84000         4.19254         0.90531
   C        4.42604         3.90102        -0.36270
   C        5.58452         4.49955        -0.76886
   C        6.20983         5.43787         0.08256
   C        5.61627         5.74763         1.34178
   C        4.42146         5.10807         1.74116
   C        6.24485         6.69642         2.17397
   C        7.40580         7.30766         1.78572
   C        7.99085         7.00004         0.54801
   C        7.40603         6.08517        -0.28513
   C        3.58160         2.93625        -1.08492
   O        3.77999         2.40414        -2.14868
   C        2.34755         2.80446        -0.23999
   C        1.20369         2.35270        -0.79487
   C       -0.13525         2.51452        -0.29489
   C       -1.16564         1.62194        -0.54765
   C       -1.04461         0.42190        -1.25424
   N       -0.93184        -0.55398        -1.84627
   S       -2.66863         2.10824         0.15259
   C       -1.94568         3.53989         0.79298
   C       -0.60286         3.62856         0.46311
   C        0.15912         4.78684         0.67821
   N        0.76819         5.75076         0.81078
   C       -2.77179         4.48562         1.49106
   N       -2.46812         5.13502         2.65882
   C       -1.37230         4.85319         3.56369
   C       -0.48887         6.07108         3.80883
   C       -3.51793         6.00582         3.04380
   O       -3.51169         6.64736         4.07177
   C       -4.49481         5.88442         1.98619
   C       -4.01799         4.90815         1.07037
   C       -4.97037         4.79532        -0.01389
   O       -4.99491         4.09069        -0.99979
   N       -5.97197         5.72414         0.31968
   C       -7.10618         5.93745        -0.54726
   C       -6.90937         7.15121        -1.45229
   C       -5.69620         6.38483         1.49688
   C       -6.52243         7.40601         2.03590
   C       -6.26825         8.01329         3.21949
   C       -7.06159         9.06890         3.73755
   S       -8.38749         9.83639         2.85471
   C       -8.55291        10.87005         4.26450
   N       -7.69140        10.57735         5.20046
   N       -6.88250         9.60673         4.91186
   C       -9.50593        11.92556         4.32067
   C       -9.66030        12.68611         5.42754
   C      -10.54768        13.79280         5.56292
   C      -10.89371        14.70144         4.61095
   C      -11.79332        15.82714         4.82303
   C      -12.79253        15.88777         5.75595
   C      -13.66671        16.98568         5.90132
   N      -14.39961        17.85346         6.06536
   C      -13.10970        14.84460         6.65275
   N      -13.43413        14.02691         7.39004
   C      -11.50298        16.82790         3.80732
   C      -10.54354        16.28698         2.90429
   C      -10.19338        14.91485         3.31012
   O       -9.46370        14.15347         2.71491
   C      -10.07275        17.00166         1.84023
   C      -10.54560        18.31616         1.63056
   C      -11.50125        18.86664         2.53361
   C      -11.97324        18.10166         3.62451
   C      -11.96093        20.18168         2.31677
   C      -11.50094        20.91860         1.25956
   C      -10.56068        20.37558         0.37101
   C      -10.09392        19.10190         0.55193
   H        6.01715         4.26323        -1.72962
   H        3.98021         5.37029         2.68996
   H        5.79154         6.92813         3.12634
   H        7.88032         8.03208         2.43035
   H        8.90656         7.49260         0.25736
   H        7.85153         5.84577        -1.23950
   H        1.29826         1.86153        -1.75823
   H       -0.79331         4.02162         3.15718
   H       -1.80749         4.53581         4.51792
   H       -0.06054         6.43879         2.87978
   H        0.31878         5.79403         4.48103
   H       -1.07475         6.86210         4.26747
   H       -8.01215         6.04074         0.05561
   H       -7.19188         5.03597        -1.16050
   H       -6.77315         8.05882        -0.86851
   H       -7.77694         7.27483        -2.09427
   H       -6.03206         7.00772        -2.07802
   H       -7.38802         7.70835         1.46145
   H       -5.42527         7.72006         3.83193
   H      -10.10863        12.07986         3.44009
   H       -9.09807        12.40949         6.31042
   H      -10.91637        13.95690         6.56972
   H       -9.34630        16.56966         1.16800
   H      -12.68946        18.54702         4.29692
   H      -12.68577        20.59494         3.00259
   H      -11.85912        21.92481         1.10203
   H      -10.20770        20.97172        -0.45708
   H       -9.36981        18.67858        -0.12869
*
