# ORCA input file
# SCF done       -194.073069442876          0.000751824191
! CAM-B3LYP def2-SVP def2/J RIJCOSX Grid4 TightSCF
%maxcore 5000
%tddft
    Mode sTDDFT
    Ethresh 5.0
    maxcore 5000
end

%pal
  nprocs 6
  end
* xyz 0 1
   C        5.14620        -0.49632         8.43794
   C        4.36894        -1.45702         9.10512
   N        3.74480        -1.33637        10.27834
   S        3.00968        -2.72183        10.61518
   N        3.41708        -3.54329         9.29797
   C        4.17643        -2.76102         8.53240
   C        4.76328        -3.09003         7.28890
   C        5.51940        -2.11931         6.67206
   C        5.70590        -0.84520         7.23934
   C        4.62255        -4.44436         6.76941
   C        5.13510        -5.56360         7.37315
   N        5.93053        -5.61053         8.53440
   O        6.22475        -6.71171         8.96445
   O        6.29550        -4.56050         9.03579
   C        4.81018        -6.73930         6.58852
   C        4.05346        -6.34937         5.54393
   C        3.84231        -4.91639         5.61807
   C        3.01228        -4.15722         4.82685
   C        3.02814        -2.73081         4.67757
   C        2.28499        -2.40144         3.59239
   C        1.70346        -3.58972         3.02865
   N        0.85451        -3.48038         1.91664
   O        0.42936        -2.36796         1.65184
   O        0.59917        -4.47262         1.24686
   C        2.06064        -4.68831         3.81780
   C        1.52596        -5.98659         3.93309
   C        0.82307        -6.69308         2.99265
   C        0.30580        -7.97325         3.25822
   N       -0.37764        -8.72382         2.32976
   C       -0.66168        -8.34451         0.96498
   C        0.54372        -8.56208         0.05456
   C       -0.75753        -9.97778         2.83400
   O       -1.35859       -10.82161         2.20346
   C       -0.26734        -9.96461         4.19703
   C        0.37325        -8.73865         4.43615
   C        0.83583        -8.75686         5.80944
   O        1.42656        -7.93528         6.47933
   N        0.44033       -10.01890         6.30653
   C        0.73944       -10.38150         7.67095
   C        2.04283       -11.17056         7.77452
   C       -0.21540       -10.75185         5.35230
   C       -0.80372       -12.03623         5.39219
   C       -0.74016       -13.00797         6.33893
   C       -1.40661       -14.26082         6.25085
   S       -0.76756       -15.59098         7.16676
   C       -1.97481       -16.68052         6.57330
   C       -2.83777       -16.02371         5.70402
   C       -2.52699       -14.66289         5.53145
   C       -3.41247       -13.73473         4.75660
   N       -3.73767       -12.52826         5.57659
   O       -3.93558       -11.50195         4.98106
   O       -3.83286       -12.68081         6.76889
   C       -4.75203       -14.40176         4.42207
   C       -4.48048       -15.77809         3.83127
   C       -3.92928       -16.69577         4.92967
   N       -3.40607       -17.90887         4.22894
   O       -4.19500       -18.79604         4.02851
   O       -2.25831       -17.88731         3.86560
   C       -1.91447       -18.03721         7.01634
   C       -2.92367       -18.93088         7.01605
   C       -2.83588       -20.30465         7.43567
   C       -4.03695       -21.06193         7.47455
   N       -5.26604       -20.63058         7.19591
   S       -6.29163       -21.85721         7.36696
   N       -5.24503       -22.98751         7.81040
   C       -4.02228       -22.45204         7.84062
   C       -2.81433       -23.08326         8.17536
   C       -1.66819       -22.33177         8.13528
   C       -1.67413       -20.97697         7.77244
   H        5.29658         0.47358         8.88296
   H        6.01250        -2.35309         5.73924
   H        6.32095        -0.13419         6.70837
   H        5.15765        -7.72444         6.83158
   H        3.71167        -6.97419         4.74386
   H        3.59506        -2.05362         5.28260
   H        2.12605        -1.42253         3.18037
   H        1.67950        -6.45384         4.89709
   H        0.67155        -6.27876         2.00852
   H       -0.98190        -7.30065         0.93491
   H       -1.48850        -8.98172         0.63985
   H        1.38283        -7.94544         0.36705
   H        0.28095        -8.29717        -0.96521
   H        0.84703        -9.60623         0.07710
   H       -0.10416       -10.93708         8.08686
   H        0.84756        -9.44148         8.22013
   H        2.01409       -12.06668         7.15807
   H        2.21822       -11.45766         8.80736
   H        2.87244       -10.55154         7.44279
   H       -1.32978       -12.23761         4.47022
   H       -0.10267       -12.89800         7.20291
   H       -2.94697       -13.38009         3.83085
   H       -5.29963       -13.78146         3.71198
   H       -5.35005       -14.50376         5.33127
   H       -3.74789       -15.68901         3.02511
   H       -5.39523       -16.20833         3.42255
   H       -4.75049       -17.02660         5.57388
   H       -0.95467       -18.32458         7.42369
   H       -3.92107       -18.64868         6.71557
   H       -2.81069       -24.12572         8.44815
   H       -0.72363       -22.79182         8.38450
   H       -0.73114       -20.45354         7.74552
*
