# ORCA input file
# SCF done       -176.028492317120          0.000981125451
! CAM-B3LYP def2-SVP def2/J RIJCOSX Grid4 TightSCF
%maxcore 5000
%tddft
    Mode sTDDFT
    Ethresh 5.0
    maxcore 5000
end

%pal
  nprocs 6
  end
* xyz 0 1
   C       -0.18094         1.67493        -5.85538
   C        0.98123         1.09001        -6.18938
   C        2.21323         1.81064        -6.00810
   C        3.44665         1.25055        -6.29068
   C        4.65021         1.93856        -6.06175
   N        5.63983         2.48140        -5.85160
   C        3.56567        -0.05158        -6.80358
   N        3.65769        -1.12097        -7.21314
   C        2.07945         3.13587        -5.49780
   C        0.85276         3.64046        -5.19337
   O       -0.28355         2.91666        -5.35994
   C        0.62974         4.94882        -4.61289
   C        1.10202         6.18089        -5.02853
   N        1.88767         6.48162        -6.16138
   O        2.10497         7.65706        -6.38715
   O        2.27996         5.56271        -6.85891
   C        0.53985         7.21149        -4.19251
   C       -0.30902         6.63310        -3.31178
   C       -0.29657         5.20585        -3.52098
   C       -0.91576         4.24926        -2.72935
   C       -0.41091         2.95809        -2.41550
   C       -1.14652         2.42762        -1.39015
   C       -2.20089         3.32666        -1.06219
   N       -3.17380         3.04347        -0.09392
   O       -4.05485         3.86868         0.11268
   O       -3.08208         1.98527         0.50349
   C       -2.11821         4.45143        -1.89806
   C       -3.07774         5.46229        -2.03272
   C       -3.19421         6.26333        -3.14360
   C       -4.00128         7.38740        -3.36000
   N       -4.86163         8.06678        -2.52858
   C       -5.29177         7.70331        -1.19714
   C       -6.35148         6.60593        -1.21888
   C       -5.38792         9.21281        -3.14667
   O       -6.16885         9.97115        -2.60790
   C       -4.78133         9.23653        -4.46562
   C       -3.95396         8.11174        -4.56486
   C       -3.29894         8.13015        -5.85691
   O       -2.49929         7.38182        -6.37140
   N       -3.79581         9.30109        -6.47038
   C       -3.40708         9.65882        -7.81418
   C       -4.47971         9.28379        -8.83343
   C       -4.67564         9.97252        -5.66152
   C       -5.30754        11.18552        -6.00588
   C       -6.16227        11.81608        -5.15028
   C       -6.82218        13.03854        -5.40927
   S       -7.84382        13.72622        -4.17635
   C       -8.23819        15.09174        -5.16521
   C       -7.59343        14.99651        -6.40652
   C       -6.80430        13.84774        -6.53304
   C       -7.69905        15.93434        -7.44963
   N       -7.75398        16.66769        -8.32942
   C       -9.10647        16.08638        -4.64668
   C       -9.51559        17.20775        -5.28643
   C      -10.39999        18.16379        -4.68577
   C      -10.82521        19.28583        -5.33775
   C      -11.71189        20.21008        -4.70950
   C      -12.16767        21.34990        -5.34273
   C      -13.04557        22.24565        -4.70834
   N      -13.76366        22.97177        -4.18326
   C      -11.78445        21.67852        -6.65456
   N      -11.47018        21.94474        -7.72625
   C      -12.10156        19.86822        -3.36407
   C      -11.62997        18.74457        -2.80412
   O      -10.79782        17.88319        -3.41516
   H       -1.14570         1.19978        -5.95136
   H        1.00141         0.08674        -6.58171
   H        2.96310         3.73313        -5.34457
   H        0.78315         8.25107        -4.29446
   H       -0.83711         7.12150        -2.51665
   H        0.48660         2.53316        -2.82254
   H       -0.98243         1.49215        -0.88885
   H       -3.79450         5.52418        -1.22646
   H       -2.58675         6.02396        -4.00807
   H       -5.71796         8.61195        -0.76197
   H       -4.42477         7.40565        -0.60344
   H       -7.24603         6.96190        -1.72430
   H       -6.61015         6.33002        -0.20115
   H       -5.99240         5.71788        -1.73279
   H       -2.49118         9.09932        -8.02286
   H       -3.18209        10.72782        -7.85731
   H       -4.65453         8.21110        -8.81171
   H       -4.14922         9.56001        -9.83051
   H       -5.41845         9.79133        -8.62159
   H       -5.08828        11.61593        -6.97153
   H       -6.36137        11.36538        -4.18596
   H       -6.24422        13.62417        -7.42331
   H       -9.46191        15.90681        -3.64032
   H       -9.19170        17.43204        -6.29036
   H      -10.48804        19.47556        -6.34480
   H      -12.76762        20.51746        -2.82067
   H      -11.87464        18.42111        -1.80348
*
