# ORCA input file
# SCF done       -169.417387940747          0.000634294936
! CAM-B3LYP def2-SVP def2/J RIJCOSX Grid4 TightSCF
%maxcore 5000
%tddft
    Mode sTDDFT
    Ethresh 5.0
    maxcore 5000
end

%pal
  nprocs 6
  end
* xyz 0 1
   C       -1.74403         1.48505        -1.65896
   C       -1.45014         0.77937        -2.81203
   F       -1.30475         1.44030        -3.96404
   C       -1.30871        -0.60340        -2.78607
   F       -1.04738        -1.25558        -3.92404
   C       -1.46564        -1.32299        -1.60007
   C       -1.76763        -0.59847        -0.44586
   C       -1.90037         0.78438        -0.47671
   F       -2.18210         1.44940         0.64849
   F       -1.90798        -1.24187         0.72186
   C       -1.31574        -2.78781        -1.56670
   C       -0.22835        -3.39957        -2.17545
   C       -0.08068        -4.77703        -2.11996
   N        1.13684        -5.33543        -2.65425
   O        1.75496        -4.66480        -3.45163
   O        1.48762        -6.42065        -2.24218
   C       -1.03046        -5.59856        -1.49085
   C       -2.11488        -4.95670        -0.88149
   C       -2.25337        -3.58683        -0.90719
   C       -0.94819        -7.04230        -1.51777
   C       -1.27799        -7.82446        -0.47014
   C       -1.21716        -9.24635        -0.53907
   N       -1.41089       -10.07822         0.54007
   C       -1.74300        -9.68394         1.88634
   C       -3.22565        -9.34835         2.03360
   C       -1.26798       -11.43790         0.19097
   O       -1.39272       -12.35136         0.98188
   C       -0.96402       -11.40426        -1.21846
   C       -0.94578       -10.05021        -1.63808
   C       -0.65501       -10.04258        -3.05285
   O       -0.57618        -9.13685        -3.85884
   N       -0.49392       -11.40193        -3.39436
   C       -0.13406       -11.75273        -4.74816
   C        1.36557       -11.99950        -4.89141
   C       -0.67154       -12.22229        -2.30464
   C       -0.61205       -13.64113        -2.19250
   C       -0.28229       -14.55910        -3.12555
   C       -0.25687       -15.97904        -2.89372
   C       -0.55899       -16.60930        -1.71338
   S       -0.41441       -18.31253        -1.80318
   C        0.06279       -18.22735        -3.43761
   C        0.10871       -16.94044        -3.90494
   C        0.49123       -16.61253        -5.27891
   O        0.49927       -15.52023        -5.78751
   O        0.85610       -17.73924        -5.96030
   C        1.27528       -17.60079        -7.24629
   C        1.59876       -18.69198        -7.94681
   C        2.07061       -18.73939        -9.31501
   C        2.40506       -17.62523       -10.09535
   F        2.30403       -16.38827        -9.58985
   C        2.85958       -17.76422       -11.40053
   F        3.17039       -16.67262       -12.10845
   C        3.00010       -19.00987       -11.98528
   C        2.67751       -20.12433       -11.23144
   C        2.22533       -19.99287        -9.92694
   F        1.92272       -21.09861        -9.23000
   F        2.80466       -21.34158       -11.77186
   H       -1.84920         2.55704        -1.68170
   H        0.53559        -2.82121        -2.67336
   H       -2.87259        -5.55927        -0.40533
   H       -3.10619        -3.12907        -0.43053
   H       -0.60651        -7.50580        -2.43486
   H       -1.54762        -7.37732         0.47665
   H       -1.11924        -8.83668         2.18552
   H       -1.49954       -10.54147         2.52018
   H       -3.50930        -8.52989         1.37553
   H       -3.43897        -9.06314         3.06015
   H       -3.82805       -10.21741         1.78135
   H       -0.41677       -10.89297        -5.36323
   H       -0.71395       -12.61878        -5.07305
   H        1.91248       -11.08308        -4.68379
   H        1.58687       -12.32026        -5.90513
   H        1.70457       -12.76863        -4.20146
   H       -0.86730       -13.96868        -1.19290
   H       -0.00369       -14.27030        -4.12391
   H       -0.85940       -16.16214        -0.78747
   H        0.28380       -19.12371        -3.98161
   H        1.30973       -16.58179        -7.60828
   H        1.49603       -19.65219        -7.46022
   H        3.35278       -19.10864       -12.99809
*
