# ORCA input file
# SCF done       -214.445621377136          0.000850448213
! CAM-B3LYP def2-SVP def2/J RIJCOSX Grid4 TightSCF
%maxcore 5000
%tddft
    Mode sTDDFT
    Ethresh 5.0
    maxcore 5000
end

%pal
  nprocs 6
  end
* xyz 0 1
   C        8.06209         5.19380        -4.72359
   C        9.10471         5.78208        -5.38108
   C       10.23135         5.08495        -5.86822
   N       11.16692         4.56835        -6.28556
   C        9.16046         7.15916        -5.68683
   N        9.22688         8.26495        -5.98558
   C        7.89783         3.77493        -4.43952
   C        6.62125         3.56022        -3.83661
   C        6.20031         2.31378        -3.46807
   C        7.05003         1.20658        -3.68417
   C        8.32846         1.41344        -4.28033
   C        8.73763         2.71309        -4.65431
   C        9.16994         0.30100        -4.48611
   C        8.76972        -0.95579        -4.12190
   C        7.51098        -1.15845        -3.53593
   C        6.66938        -0.10066        -3.32178
   C        5.92981         4.84591        -3.69096
   O        4.82566         5.07556        -3.24712
   C        6.88234         5.86943        -4.20423
   C        6.62149         7.18188        -4.05486
   C        5.41162         7.65069        -3.40297
   C        5.35556         7.95925        -2.06782
   N        6.43680         7.81210        -1.18852
   O        6.26228         8.05935        -0.01138
   O        7.50076         7.44227        -1.67095
   C        4.01832         8.38513        -1.71382
   C        3.27616         8.39515        -2.84037
   C        4.09503         7.97331        -3.96131
   C        3.74837         7.87310        -5.28569
   C        4.45871         7.14233        -6.29099
   C        3.64716         6.99057        -7.36636
   C        2.40604         7.68497        -7.13921
   N        1.41642         7.66006        -8.13472
   O        1.75450         7.27516        -9.24015
   O        0.26684         7.98099        -7.85932
   C        2.46823         8.32470        -5.89856
   C        1.72789         9.37939        -5.33485
   C        0.51877         9.85979        -5.75658
   C       -0.13855        10.95497        -5.17479
   S        0.42811        11.71875        -3.71143
   C       -0.94450        12.78557        -3.67052
   C       -1.78666        12.55946        -4.75803
   C       -1.32593        11.55296        -5.60755
   C       -1.99817        11.22560        -6.91010
   C       -1.19053        11.88649        -8.03204
   F        0.07961        11.46745        -8.09260
   F       -1.72817        11.66131        -9.23581
   F       -1.13414        13.22214        -7.88322
   C       -3.45320        11.73916        -7.00374
   C       -4.01886        12.16794        -5.65462
   C       -3.10551        13.20925        -5.00685
   C       -1.11424        13.74270        -2.64308
   C       -0.22992        13.96066        -1.63987
   C       -0.45358        14.94136        -0.63861
   S        0.71490        15.28615         0.62778
   C       -0.44039        16.49052         1.18405
   N       -1.51447        16.52648         0.44325
   N       -1.52376        15.68818        -0.54682
   C       -0.17709        17.32650         2.30459
   C       -1.06925        18.24768         2.73445
   C       -0.89138        19.14080         3.82978
   C        0.26174        19.70927         4.27793
   C        0.35395        20.60908         5.42006
   C       -0.52689        20.67235         6.46599
   C       -0.37790        21.53986         7.56902
   N       -0.31154        22.22791         8.48525
   C       -1.66821        19.85372         6.60743
   N       -2.59786        19.20779         6.79875
   C        1.59639        21.35782         5.30187
   C        2.31799        20.85824         4.18043
   C        1.55964        19.76931         3.54264
   O        1.91950        19.10291         2.59748
   C        3.53448        21.36440         3.82152
   C        4.09366        22.41570         4.58117
   C        3.37373        22.92736         5.70001
   C        2.11695        22.38223         6.04833
   C        3.94005        23.98017         6.44740
   C        5.15910        24.50171         6.10929
   C        5.86753        23.99611         5.00879
   C        5.34642        22.97514         4.26117
   H        5.23064         2.17529        -3.01330
   H        9.71227         2.83946        -5.09877
   H       10.13771         0.46203        -4.93765
   H        9.42126        -1.80134        -4.28309
   H        7.21195        -2.15691        -3.25446
   H        5.69971        -0.25076        -2.87033
   H        7.33366         7.93972        -4.35850
   H        3.71702         8.62051        -0.71155
   H        2.22607         8.60060        -2.89640
   H        5.43430         6.71858        -6.16850
   H        3.85151         6.44572        -8.26915
   H        2.20415         9.89483        -4.51111
   H        0.01665         9.36539        -6.57480
   H       -1.95139        10.14822        -7.09699
   H       -4.07898        10.96083        -7.43968
   H       -3.48694        12.59953        -7.67570
   H       -4.10592        11.30377        -4.99282
   H       -5.01497        12.58449        -5.80309
   H       -3.53872        13.57446        -4.07607
   H       -2.97942        14.06139        -5.68050
   H       -2.00796        14.34953        -2.67112
   H        0.68835        13.39372        -1.57767
   H        0.76738        17.17867         2.80284
   H       -2.03331        18.27932         2.24286
   H       -1.81406        19.44272         4.31340
   H        4.06352        20.96636         2.96832
   H        1.59224        22.79496         6.89545
   H        3.39197        24.36493         7.29483
   H        5.58486        25.30711         6.68860
   H        6.82800        24.41972         4.75636
   H        5.88707        22.58169         3.41287
*
