# ORCA input file
# SCF done       -192.373712908845          0.000934720151
! CAM-B3LYP def2-SVP def2/J RIJCOSX Grid4 TightSCF
%maxcore 5000
%tddft
    Mode sTDDFT
    Ethresh 5.0
    maxcore 5000
end

%pal
  nprocs 6
  end
* xyz 0 1
   C        1.48391         1.99815        -2.09239
   C        1.38307         3.00276        -3.01876
   C        0.96014         2.80820        -4.35124
   N        0.63113         2.71999        -5.44662
   C        1.75773         4.33845        -2.78602
   N        2.03801         5.44353        -2.64830
   C        1.27097         0.58212        -2.37051
   C        1.87203        -0.18665        -1.33102
   C        1.84805        -1.55243        -1.34170
   C        1.19733        -2.22044        -2.40317
   C        0.57263        -1.45643        -3.43185
   C        0.62185        -0.04347        -3.39972
   C       -0.08729        -2.13542        -4.47587
   C       -0.12643        -3.50310        -4.50705
   C        0.49180        -4.25432        -3.49634
   C        1.13984        -3.62681        -2.46703
   C        2.44264         0.72155        -0.32781
   O        3.08794         0.45421         0.65688
   C        2.00775         2.09886        -0.75055
   C        2.10980         3.09444         0.17064
   C        1.52099         4.37826         0.23707
   C        0.36543         4.88840        -0.32587
   C        0.07691         6.23936         0.01230
   C        1.06849         6.89716         0.82456
   O        1.21093         8.03313         1.15939
   S        2.28067         5.58574         1.25740
   C       -1.06578         6.60384        -0.67878
   O       -1.49975         5.55521        -1.43247
   C       -0.68451         4.45457        -1.22692
   O       -0.90681         3.40038        -1.76342
   C       -1.75573         7.83756        -0.67065
   N       -2.50635         8.34416        -1.70252
   C       -2.76398         7.72285        -2.98149
   C       -3.98466         6.80963        -2.92769
   C       -2.99641         9.62522        -1.40256
   O       -3.66120        10.28862        -2.17267
   C       -2.52697         9.88594        -0.05713
   C       -1.77409         8.76956         0.36630
   C       -1.40856         8.97453         1.75739
   O       -0.87433         8.26216         2.57288
   N       -1.88850        10.27156         2.04590
   C       -1.71676        10.85306         3.35593
   C       -2.97806        10.72107         4.20559
   C       -2.56887        10.81413         0.99079
   C       -3.17259        12.09686         1.00992
   C       -3.86519        12.58578        -0.04968
   C       -4.46471        13.87156        -0.03319
   S       -5.36574        14.49748        -1.40464
   C       -5.60844        15.93596        -0.41983
   N       -5.04361        15.83484         0.75528
   N       -4.42526        14.71770         0.96539
   C       -6.34743        17.05346        -0.88974
   C       -6.53554        18.18264        -0.16290
   C       -7.29444        19.26273        -0.68241
   C       -7.53566        20.43765        -0.03687
   C       -8.31392        21.56058        -0.53654
   C       -9.01348        21.61759        -1.71371
   C       -9.76009        22.73824        -2.13768
   N      -10.39154        23.60835        -2.53991
   C       -9.11037        20.58431        -2.66968
   N       -9.24362        19.79802        -3.49616
   C       -8.24281        22.62673         0.45538
   C       -7.46758        22.17375         1.56110
   C       -7.00730        20.79785         1.31141
   O       -6.33814        20.11109         2.05103
   C       -7.23082        22.96352         2.64947
   C       -7.76712        24.26978         2.68306
   C       -8.54237        24.73218         1.58017
   C       -8.77141        23.89144         0.46758
   C       -9.07259        26.03803         1.62266
   C       -8.84864        26.84924         2.70148
   C       -8.08496        26.39302         3.78659
   C       -7.55586        25.13087         3.77780
   H        2.31509        -2.11662        -0.54814
   H        0.12790         0.51177        -4.18105
   H       -0.55946        -1.55269        -5.25292
   H       -0.63423        -4.01385        -5.31139
   H        0.45109        -5.33248        -3.53666
   H        1.61668        -4.20010        -1.68557
   H        2.72413         2.83658         1.03091
   H       -1.88063         7.16352        -3.29527
   H       -2.94545         8.53903        -3.68639
   H       -3.81865         5.98973        -2.23411
   H       -4.17155         6.39625        -3.91442
   H       -4.85950         7.37343        -2.61254
   H       -1.42525        11.90115         3.25228
   H       -0.89752        10.30166         3.82495
   H       -3.81794        11.23298         3.74128
   H       -2.80474        11.15381         5.18664
   H       -3.23467         9.67192         4.32974
   H       -3.07521        12.70980         1.89380
   H       -3.98425        11.99970        -0.95110
   H       -6.77056        16.96545        -1.88222
   H       -6.10681        18.26332         0.82494
   H       -7.70191        19.12016        -1.67562
   H       -6.63929        22.59459         3.47421
   H       -9.36057        24.27350        -0.35068
   H       -9.66003        26.38443         0.78505
   H       -9.25877        27.84768         2.72478
   H       -7.91806        27.04693         4.62938
   H       -6.96725        24.77421         4.61028
*
