# ORCA input file
# SCF done       -172.186302511310          0.000423755590
! CAM-B3LYP def2-SVP def2/J RIJCOSX Grid4 TightSCF
%maxcore 5000
%tddft
    Mode sTDDFT
    Ethresh 5.0
    maxcore 5000
end

%pal
  nprocs 6
  end
* xyz 0 1
   C        0.59130         2.65165        -4.74485
   N        1.14722         3.89497        -4.79073
   C        2.05839         4.37507        -5.79668
   C        1.35840         4.60547        -7.13350
   C        0.67794         4.70843        -3.73793
   O        1.02207         5.87067        -3.59314
   C       -0.21073         3.85252        -3.00437
   C       -0.24979         2.58488        -3.67293
   C       -1.17871         1.73359        -2.95849
   O       -1.55278         0.59617        -3.14282
   N       -1.64634         2.54455        -1.90664
   C       -2.55963         2.02579        -0.91886
   C       -1.85824         1.68633         0.39402
   C       -1.06551         3.79463        -1.91289
   C       -1.30220         4.77204        -0.91515
   C       -0.51478         5.87100        -0.79441
   C       -0.62286         6.81293         0.25401
   S       -2.12913         7.00590         1.10942
   C       -1.49496         8.22793         2.10460
   C       -0.16998         8.49546         1.83038
   C        0.35395         7.67061         0.77621
   C        1.72393         7.78821         0.41752
   C        2.44664         8.83085         0.98425
   C        1.91407         9.64576         2.00690
   C        0.64219         9.46817         2.45407
   O        3.70724         9.02198         0.53824
   C        2.41050         6.90712        -0.52066
   S        3.27329         7.60200        -1.84682
   C        3.69067         6.08492        -2.48191
   C        3.19831         5.05197        -1.71849
   C        2.50897         5.52342        -0.54926
   C        2.01791         4.56920         0.39884
   C        1.99304         3.24059         0.02000
   C        2.58269         2.80288        -1.19357
   C        3.23010         3.66889        -2.01194
   O        1.48130         2.25240         0.79848
   C        1.63503         5.01001         1.73240
   S        0.07044         4.61188         2.38872
   C        0.31767         5.56815         3.77695
   C        1.55188         6.16974         3.76663
   C        2.34378         5.80707         2.62234
   C        3.70096         6.27700         2.52176
   C        4.09890         7.28533         3.39741
   C        3.26799         7.65824         4.49527
   C        2.05872         7.09103         4.71479
   O        5.28995         7.89414         3.38233
   C        4.62638         5.67854         1.58869
   N        4.65377         4.32093         1.34716
   C        4.26358         3.28431         2.27438
   C        5.28084         3.16614         3.40741
   C        5.50535         3.99734         0.26939
   O        5.69658         2.85994        -0.10873
   C        6.04684         5.26494        -0.15561
   C        5.55200         6.26519         0.73948
   C        6.19145         7.49663         0.39381
   O        6.22204         8.57639         0.99038
   N        6.94651         7.21581        -0.73658
   C        7.65077         8.25859        -1.44036
   C        6.84819         8.76326        -2.63732
   C        6.86175         5.88031        -1.08540
   C        7.51814         5.32190        -2.23193
   C        7.42219         4.03346        -2.56489
   H        0.84171         1.90636        -5.47673
   H        2.87771         3.65821        -5.91595
   H        2.45833         5.31954        -5.41705
   H        0.93453         3.67737        -7.51039
   H        2.06769         4.98689        -7.86302
   H        0.55651         5.32975        -7.01362
   H       -2.98096         1.11558        -1.35553
   H       -3.36842         2.74409        -0.75213
   H       -1.02929         1.00839         0.20747
   H       -2.55914         1.20656         1.07183
   H       -1.46897         2.58298         0.87072
   H       -2.08474         4.59254        -0.19088
   H        0.27349         6.03077        -1.51450
   H       -2.11879         8.70730         2.83248
   H        2.55375        10.39884         2.44605
   H        0.23787        10.06226         3.25819
   H        4.19321         9.66309         1.07376
   H        4.23492         6.01302        -3.40199
   H        2.54548         1.74544        -1.39809
   H        3.74578         3.32767        -2.89553
   H        1.10848         2.61615         1.61256
   H       -0.45897         5.65828         4.50875
   H        3.67763         8.39353         5.17012
   H        1.46209         7.34380         5.57738
   H        5.66043         8.05673         2.47550
   H        4.23069         2.35505         1.70037
   H        3.27684         3.49057         2.68850
   H        6.26521         2.93796         3.00558
   H        4.98768         2.36886         4.08478
   H        5.33768         4.09837         3.96668
   H        8.63446         7.89582        -1.75054
   H        7.78759         9.07059        -0.72045
   H        6.68793         7.96681        -3.36034
   H        7.37977         9.57674        -3.12330
   H        5.87768         9.12419        -2.30497
   H        8.10967         5.99806        -2.83387
   H        6.84291         3.34290        -1.97585
   H        7.92799         3.64233        -3.43084
*
