# ORCA input file
# SCF done       -168.579620091250          0.000945359531
! CAM-B3LYP def2-SVP def2/J RIJCOSX Grid4 TightSCF
%maxcore 5000
%tddft
    Mode sTDDFT
    Ethresh 5.0
    maxcore 5000
end

%pal
  nprocs 6
  end
* xyz 0 1
   C       -6.12835        -1.68666         1.72897
   N       -6.53826        -0.97930         2.81436
   C       -7.11484        -1.53296         4.01374
   C       -6.05644        -2.19631         4.89137
   C       -6.26845         0.40347         2.66307
   O       -6.54649         1.23776         3.50021
   C       -5.65333         0.48943         1.36199
   C       -5.58353        -0.82827         0.81422
   C       -4.97593        -0.72045        -0.49441
   O       -4.70973        -1.54194        -1.34238
   N       -4.71784         0.66262        -0.65079
   C       -4.06111         1.12187        -1.84968
   C       -2.56745         1.35249        -1.62934
   C       -5.11563         1.38790         0.45276
   C       -5.06667         2.78652         0.70801
   C       -4.56933         3.79538        -0.04564
   C       -4.62284         5.16605         0.33719
   S       -3.96333         6.37471        -0.73340
   C       -4.40764         7.66994         0.33137
   C       -5.03020         7.15852         1.47061
   C       -5.14694         5.75700         1.46538
   C       -5.49681         7.92318         2.55430
   N       -5.88742         8.50015         3.46582
   C       -4.12335         9.00856        -0.06104
   C       -4.51809        10.11710         0.59967
   C       -4.26414        11.47674         0.19206
   C       -4.92959        12.50995         0.85286
   C       -4.74481        13.83393         0.49225
   N       -5.45460        14.81795         1.26820
   O       -6.45778        14.45260         1.84360
   O       -5.01096        15.94756         1.31574
   C       -3.87707        14.20037        -0.55605
   C       -3.20180        13.15047        -1.19707
   C       -3.38236        11.83635        -0.83961
   C       -3.73110        15.56184        -1.01022
   C       -2.61708        16.05728        -1.58523
   C       -2.48272        17.39901        -2.05135
   S       -0.95179        17.94831        -2.67485
   C       -1.57136        19.53538        -3.00018
   C       -2.92058        19.60799        -2.63298
   C       -3.41906        18.40829        -2.09956
   C       -3.74109        20.73883        -2.77622
   N       -4.45330        21.63278        -2.88806
   C       -0.70693        20.51144        -3.55169
   C       -1.06272        21.78993        -3.84530
   C       -0.15140        22.73282        -4.38085
   N       -0.50446        24.02309        -4.70668
   C       -1.82829        24.59452        -4.64184
   C       -2.71196        24.12041        -5.79278
   C        0.58675        24.76322        -5.19222
   O        0.50696        25.92573        -5.53655
   C        1.69605        23.83586        -5.14830
   C        1.20701        22.59621        -4.64962
   C        2.31185        21.67116        -4.60478
   O        2.39114        20.50348        -4.26811
   N        3.40676        22.41351        -5.08330
   C        4.72656        21.83462        -5.13788
   C        5.58161        22.25714        -3.94542
   C        3.05283        23.70322        -5.40393
   C        3.97803        24.67129        -5.91858
   C        3.62882        25.92752        -6.20480
   H       -6.26197        -2.75172         1.68077
   H       -7.89006        -2.25490         3.73973
   H       -7.57422        -0.69807         4.54986
   H       -5.57157        -3.01198         4.35916
   H       -6.51831        -2.59221         5.79130
   H       -5.30026        -1.46963         5.17833
   H       -4.55905         2.01982        -2.22353
   H       -4.19491         0.32126        -2.58405
   H       -2.39140         2.07178        -0.83249
   H       -2.11066         1.71989        -2.54431
   H       -2.09029         0.41479        -1.35576
   H       -5.51136         3.03005         1.66415
   H       -4.09866         3.61187        -0.99852
   H       -5.60443         5.21061         2.27036
   H       -3.57077         9.09436        -0.98720
   H       -5.10602        10.00985         1.49995
   H       -5.60495        12.28876         1.66686
   H       -2.54272        13.38810        -2.01761
   H       -2.83172        11.07233        -1.36563
   H       -4.56785        16.22399        -0.84645
   H       -1.73264        15.44203        -1.68186
   H       -4.43413        18.30259        -1.76189
   H        0.31008        20.19113        -3.73949
   H       -2.07250        22.12277        -3.66250
   H       -1.69009        25.67754        -4.70652
   H       -2.28840        24.35356        -3.67949
   H       -2.26474        24.39628        -6.74492
   H       -3.69013        24.58628        -5.71724
   H       -2.84020        23.04058        -5.76727
   H        5.20982        22.10648        -6.08045
   H        4.58064        20.75073        -5.11715
   H        5.70915        23.33710        -3.91996
   H        6.56017        21.78923        -4.00887
   H        5.10536        21.94368        -3.01964
   H        4.99582        24.34001        -6.07289
   H        2.62213        26.28088        -6.05640
   H        4.34697        26.63074        -6.58993
*
