# ORCA input file
# SCF done       -179.018907759147          0.000222034380
! CAM-B3LYP def2-SVP def2/J RIJCOSX Grid4 TightSCF
%maxcore 5000
%tddft
    Mode sTDDFT
    Ethresh 5.0
    maxcore 5000
end

%pal
  nprocs 6
  end
* xyz 0 1
   C       -2.35851         0.24508        -1.35677
   S       -3.03633        -1.22527        -1.87123
   C       -1.47523        -1.96755        -2.08196
   C       -0.46474        -1.05585        -1.79009
   C       -0.97926         0.21045        -1.36038
   C       -0.07569         1.24846        -0.99413
   C       -0.58669         2.48894        -0.55654
   N       -1.01072         3.49467        -0.20534
   C        1.28133         1.02645        -1.07989
   C        1.78304        -0.18816        -1.56585
   C        0.94037        -1.21555        -1.93534
   C        1.47034        -2.38557        -2.52073
   N        1.89390        -3.31359        -3.04441
   C       -1.40578        -3.35146        -2.43069
   C       -0.72792        -4.38149        -1.79952
   N        0.08084        -4.31147        -0.65571
   O        0.45742        -5.36065        -0.16690
   O        0.33109        -3.20853        -0.18709
   C       -1.10201        -5.63599        -2.40646
   C       -2.03724        -5.39899        -3.35650
   C       -2.25850        -3.97877        -3.44217
   C       -2.97488        -3.29792        -4.40878
   C       -2.64983        -2.01562        -4.94711
   C       -3.40945        -1.79655        -6.05892
   C       -4.31072        -2.89169        -6.22558
   N       -5.31815        -2.90855        -7.20689
   O       -5.25526        -2.06171        -8.08183
   O       -6.19913        -3.74802        -7.12563
   C       -4.08443        -3.83474        -5.22116
   C       -4.83906        -4.98976        -4.95725
   C       -4.96761        -5.55538        -3.71526
   C       -5.67692        -6.74379        -3.48093
   N       -5.95287        -7.24130        -2.22724
   C       -5.62193        -6.61910        -0.96731
   C       -6.54574        -5.44636        -0.64967
   C       -6.67570        -8.44114        -2.28109
   O       -7.03705        -9.05689        -1.29890
   C       -6.83009        -8.70276        -3.69956
   C       -6.20841        -7.65647        -4.40467
   C       -6.31531        -7.94365        -5.82297
   O       -5.89252        -7.37280        -6.80179
   N       -7.03688        -9.15540        -5.87453
   C       -7.41092        -9.74544        -7.13813
   C       -8.86560        -9.44624        -7.49005
   C       -7.34669        -9.62326        -4.62627
   C       -8.03681       -10.83218        -4.38424
   C       -8.30556       -11.28486        -3.13019
   C       -8.98098       -12.50953        -2.90983
   S       -9.29215       -13.14075        -1.29486
   C      -10.05048       -14.49816        -2.11636
   N      -10.01481       -14.37651        -3.41970
   N       -9.43570       -13.30183        -3.84690
   C      -10.62227       -15.58829        -1.41331
   C      -11.22465       -16.62338        -2.04819
   C      -11.79914       -17.73560        -1.38801
   S      -11.73889       -17.88188         0.34514
   C      -12.56699       -19.36372         0.33685
   C      -12.89891       -19.76743        -0.93935
   C      -12.46266       -18.83847        -1.94291
   C      -12.74719       -19.13549        -3.30284
   C      -12.37257       -18.29190        -4.37332
   N      -12.10644       -17.66153        -5.29354
   C      -13.42511       -20.29670        -3.62494
   C      -13.84586       -21.20051        -2.64239
   C      -13.59419       -20.95351        -1.31181
   C      -14.01361       -21.85387        -0.30916
   N      -14.35139       -22.58078         0.51056
   H       -2.98847         1.06203        -1.06445
   H        1.96881         1.80722        -0.79112
   H        2.85020        -0.31922        -1.66222
   H       -0.67661        -6.57706        -2.11587
   H       -2.47004        -6.11876        -4.02284
   H       -1.84164        -1.39785        -4.60604
   H       -3.37193        -0.95095        -6.71954
   H       -5.40769        -5.39716        -5.78612
   H       -4.53977        -5.05103        -2.86010
   H       -4.57560        -6.29999        -0.98302
   H       -5.74040        -7.39632        -0.20735
   H       -6.47917        -4.67584        -1.41463
   H       -6.27189        -5.01348         0.30825
   H       -7.57585        -5.78936        -0.59350
   H       -7.23089       -10.82298        -7.10589
   H       -6.75229        -9.29718        -7.88710
   H       -9.54080        -9.85361        -6.74097
   H       -9.10610        -9.88674        -8.45323
   H       -9.01964        -8.37175        -7.55193
   H       -8.35694       -11.42992        -5.22485
   H       -8.00194       -10.72072        -2.25885
   H      -10.55682       -15.56010        -0.33430
   H      -11.27054       -16.60098        -3.12727
   H      -12.77689       -19.87687         1.25465
   H      -13.63508       -20.50953        -4.66248
   H      -14.37255       -22.09684        -2.93258
*
