# ORCA input file
# SCF done       -206.489697451176          0.000235930795
! CAM-B3LYP def2-SVP def2/J RIJCOSX Grid4 TightSCF
%maxcore 5000
%tddft
    Mode sTDDFT
    Ethresh 5.0
    maxcore 5000
end

%pal
  nprocs 6
  end
* xyz 0 1
   C       -8.73582        -0.67384        -4.41356
   C       -9.08720         0.41399        -5.19564
   C       -8.89084         1.69531        -4.67726
   C       -9.24282         2.82368        -5.45979
   N       -9.53052         3.72964        -6.09733
   C       -8.34869         1.88874        -3.39186
   C       -8.16685         3.20115        -2.89216
   N       -8.01425         4.25441        -2.47003
   C       -7.98870         0.78968        -2.61047
   C       -8.18877        -0.47126        -3.13150
   C       -7.87180        -1.77600        -2.50891
   O       -7.33187        -1.95385        -1.44134
   C       -8.24767        -2.79412        -3.52191
   C       -8.82941        -2.11011        -4.66217
   C       -9.45673        -2.70776        -5.72127
   C      -10.03653        -2.00159        -6.79754
   N      -10.51720        -1.47015        -7.69307
   C       -9.66072        -4.10152        -5.83355
   N       -9.90084        -5.21704        -5.95127
   C       -7.86653        -4.10365        -3.48792
   C       -7.39271        -4.86655        -2.38956
   C       -6.39954        -5.84604        -2.49006
   C       -6.19033        -6.40154        -1.21674
   C       -7.14021        -5.80612        -0.30551
   O       -7.39449        -6.03347         0.85902
   N       -7.83096        -4.86157        -1.09189
   C       -8.94413        -4.13896        -0.54221
   C       -5.21670        -7.40678        -1.31933
   N       -4.80578        -7.44988        -2.62038
   C       -5.47975        -6.48128        -3.41202
   O       -5.25670        -6.30371        -4.58499
   C       -3.74274        -8.22679        -3.20162
   C       -4.80770        -8.19873        -0.21721
   C       -4.18992        -9.46287        -0.14454
   C       -4.03877        -9.93042         1.20902
   N       -3.45486       -11.09967         1.46125
   C       -3.06118       -11.82328         0.43392
   C       -2.41860       -13.13005         0.73497
   O       -2.25856       -13.52900         1.86727
   C       -2.00529       -13.90494        -0.44957
   C       -2.19572       -13.49464        -1.70783
   C       -2.83120       -12.21227        -2.06205
   O       -2.98848       -11.85289        -3.20810
   C       -3.25604       -11.38414        -0.90271
   N       -3.81050       -10.22011        -1.17124
   C       -4.52620        -9.01194         2.16018
   S       -5.16799        -7.60888         1.37096
   C       -4.53153        -9.02664         3.57767
   C       -4.69245        -7.86600         4.34799
   C       -4.62259        -8.21058         5.70941
   C       -4.44121        -9.64916         5.79324
   O       -4.36947       -10.40241         6.73182
   N       -4.39286       -10.07534         4.43926
   C       -4.30384       -11.48056         4.14200
   C       -4.62642        -7.03819         6.46440
   N       -4.73715        -5.98540         5.58250
   C       -4.79421        -6.43208         4.24617
   O       -4.92044        -5.69128         3.29393
   C       -5.00989        -4.60706         5.88962
   C       -4.54248        -6.96745         7.87557
   C       -4.00266        -6.00450         8.67470
   C       -4.37973        -5.93830        10.11597
   O       -5.01294        -6.75175        10.74073
   C       -3.86497        -4.62997        10.58559
   C       -4.04616        -4.02620        11.81168
   C       -3.48539        -2.76327        12.01235
   C       -2.76286        -2.13654        10.97903
   C       -2.57521        -2.76189         9.74443
   C       -3.12674        -4.01661         9.55336
   C       -3.08370        -4.92264         8.40463
   C       -2.16037        -4.88041         7.39307
   C       -1.97889        -5.91961         6.45488
   N       -1.75932        -6.75770         5.70305
   C       -1.22260        -3.83777         7.23196
   N       -0.45995        -2.99976         7.05433
   C       -2.22016        -0.84470        11.19340
   N       -1.78371         0.20099        11.35488
   C       -3.64988        -2.10669        13.25641
   N       -3.79545        -1.58979        14.26749
   H       -9.49834         0.30337        -6.18649
   H       -7.56622         0.92219        -1.62598
   H       -7.82583        -4.64815        -4.42543
   H       -9.33690        -4.72663         0.28815
   H       -9.71438        -3.99686        -1.29977
   H       -8.62230        -3.16784        -0.16079
   H       -4.00298        -9.28247        -3.26038
   H       -2.82873        -8.12184        -2.61787
   H       -3.58370        -7.83589        -4.20664
   H       -1.53214       -14.85306        -0.23274
   H       -1.88192       -14.09697        -2.54959
   H       -5.10534       -11.78029         3.46779
   H       -4.40518       -12.00777         5.09068
   H       -3.34844       -11.73592         3.68666
   H       -5.51814        -4.52295         6.84948
   H       -5.64937        -4.21497         5.09704
   H       -4.09504        -4.00915         5.90508
   H       -4.99640        -7.80502         8.39803
   H       -4.60639        -4.51599        12.59354
   H       -2.01950        -2.25222         8.97303
*
