# ORCA input file
# SCF done       -181.957348427592          0.000686777539
! CAM-B3LYP def2-SVP def2/J RIJCOSX Grid4 TightSCF
%maxcore 5000
%tddft
    Mode sTDDFT
    Ethresh 5.0
    maxcore 5000
end

%pal
  nprocs 6
  end
* xyz 0 1
   C        5.59666        -1.64101        -8.59180
   C        6.30269        -1.82611        -9.74951
   C        7.67558        -1.54255        -9.79404
   C        8.32283        -1.07916        -8.68109
   C        7.62620        -0.87580        -7.47274
   C        8.28778        -0.38751        -6.32202
   C        7.57818        -0.20194        -5.16703
   C        6.18518        -0.50468        -5.12489
   C        5.52068        -0.96929        -6.22204
   C        6.23195        -1.16496        -7.42824
   C        5.66811        -0.24484        -3.76562
   O        4.52803        -0.34706        -3.37161
   C        6.86639         0.10522        -2.96053
   C        7.97260         0.32197        -3.86475
   C        9.07118         1.10694        -3.61700
   C        9.21196         1.87451        -2.44229
   N        9.31424         2.56618        -1.53129
   C       10.14544         1.26186        -4.50841
   N       11.07856         1.37704        -5.16977
   C        6.82035         0.04490        -1.59828
   C        7.89555        -0.10925        -0.70037
   C        7.87988         0.17423         0.66527
   C        9.08454        -0.15813         1.31387
   S        9.50315         0.18653         2.97945
   C        7.87940         0.61532         3.69383
   C        7.15952         1.65591         2.87020
   S        6.45872         0.92301         1.35801
   C       10.02815        -0.69663         0.44045
   S        9.44277        -0.74257        -1.18644
   C       11.36105        -1.14363         0.68183
   C       12.32842        -1.04347        -0.34918
   C       13.69993        -1.39353        -0.14421
   N       14.57506        -1.22691        -1.14662
   C       14.16401        -0.80282        -2.30620
   C       12.80416        -0.49318        -2.52136
   N       11.93488        -0.59984        -1.55695
   C       14.18017        -1.92424         1.08206
   C       13.18637        -2.15719         2.05408
   C       11.80554        -1.76561         1.86362
   N       11.03764        -2.17330         2.87634
   S       11.93909        -2.94889         3.94737
   N       13.34742        -2.82995         3.19327
   C       15.55429        -2.26456         1.21869
   C       16.31393        -2.45222         2.38269
   C       17.63275        -2.82518         2.09727
   S       18.94267        -3.15885         3.21075
   C       18.16557        -2.93428         4.84145
   C       17.25754        -1.72873         4.84251
   S       15.68801        -2.12258         3.98905
   C       17.89800        -2.91146         0.71538
   S       16.50018        -2.45974        -0.22308
   C       19.13742        -3.32293         0.21302
   C       19.60528        -3.34543        -1.07760
   C       20.92158        -3.79664        -1.48125
   C       21.83952        -4.47136        -0.71607
   C       23.10030        -4.89146        -1.18756
   N       24.14148        -5.25860        -1.50400
   C       21.66815        -4.87215         0.62530
   N       21.61788        -5.25284         1.70819
   C       21.09633        -3.44480        -2.88794
   C       19.89080        -2.84899        -3.35647
   C       19.75172        -2.41011        -4.64082
   C       20.83687        -2.54646        -5.53598
   C       20.75597        -2.10815        -6.87200
   C       21.82105        -2.24859        -7.72012
   C       23.01270        -2.83454        -7.26894
   C       23.12352        -3.27053        -5.97639
   C       22.04687        -3.14050        -5.07632
   C       22.15912        -3.58795        -3.73890
   C       18.91276        -2.80783        -2.25674
   O       17.76643        -2.40090        -2.32878
   H        4.53908        -1.85769        -8.55150
   H        5.80730        -2.19176       -10.63659
   H        8.21818        -1.69263       -10.71553
   H        9.37956        -0.85696        -8.71139
   H        9.34542        -0.18055        -6.37827
   H        4.46348        -1.18421        -6.17348
   H        5.82625         0.02570        -1.16065
   H        8.11722         0.99723         4.68680
   H        7.28843        -0.29613         3.78819
   H        7.82556         2.46872         2.57988
   H        6.30181         2.06009         3.40776
   H       14.91328        -0.68600        -3.07482
   H       12.44264        -0.13040        -3.47350
   H       19.00518        -2.80970         5.52607
   H       17.61723        -3.84014         5.10096
   H       17.72700        -0.86872         4.36549
   H       16.95882        -1.46592         5.85662
   H       19.82758        -3.65681         0.98032
   H       18.82620        -1.96205        -4.97079
   H       19.83560        -1.65749        -7.21393
   H       21.75088        -1.90876        -8.74268
   H       23.84349        -2.93884        -7.95069
   H       24.03910        -3.72274        -5.62423
   H       23.09085        -4.02876        -3.42242
*
