# ORCA input file
# SCF done       -212.469371545380          0.000703691922
! CAM-B3LYP def2-SVP def2/J RIJCOSX Grid4 TightSCF
%maxcore 5000
%tddft
    Mode sTDDFT
    Ethresh 5.0
    maxcore 5000
end

%pal
  nprocs 6
  end
* xyz 0 1
   C        0.15591         2.98363         2.40194
   C        0.65369         3.15905         1.13544
   C        2.02026         3.04640         0.80441
   N        3.11614         2.97057         0.47017
   C       -0.10358         3.42491        -0.02503
   N       -0.63723         3.62209        -1.02301
   C        0.94957         2.59446         3.56236
   C        0.06980         2.33963         4.64024
   C        0.50791         1.94265         5.87993
   C        1.88614         1.79683         6.06779
   C        2.76001         2.06033         4.98654
   C        2.31466         2.45647         3.73113
   S        4.42211         1.82798         5.43741
   C        3.92658         1.38352         7.04907
   C        2.58660         1.40822         7.24249
  Br        5.22489         0.93253         8.32542
   C       -1.32230         2.57662         4.20962
   O       -2.30545         2.40045         4.90202
   C       -1.23371         3.06828         2.81830
   C       -2.21505         3.64072         2.04550
   C       -3.59090         3.80502         2.26124
   C       -4.45456         3.32480         3.24818
   C       -5.75143         3.74713         3.06310
   C       -5.91534         4.56196         1.92675
   S       -4.45559         4.79030         1.07261
   C       -7.25918         4.97182         1.84262
   C       -7.96661         4.41727         2.92170
   C       -7.06397         3.57268         3.78827
   C       -7.50476         2.10601         3.79268
   C       -6.98651         4.11774         5.21686
   C       -9.29293         4.79255         2.93631
   C       -9.61752         5.64038         1.87547
   S       -8.24457         5.95878         0.83859
   C      -10.88044         6.23681         1.63131
   C      -11.09735         7.10815         0.53724
   C      -12.34508         7.77760         0.29127
   N      -12.44099         8.59451        -0.77812
   C      -11.42185         8.75944        -1.55684
   C      -10.19127         8.10124        -1.31493
   N      -10.06070         7.31166        -0.29897
   F       -9.14375         8.27243        -2.11453
   F      -11.57375         9.57668        -2.59898
   C      -13.46184         7.60580         1.14668
   C      -13.25536         6.70758         2.22079
   C      -12.00504         6.03322         2.46705
   N      -12.08012         5.24913         3.54372
   S      -13.55298         5.34373         4.17540
   N      -14.17681         6.38497         3.12660
   C      -14.70793         8.26972         0.99817
   C      -15.09812         9.18034         0.01548
   C      -16.38251         9.64535         0.20766
   C      -16.99478         9.09458         1.34405
   S      -15.98009         7.98979         2.17499
   C      -18.28964         9.62975         1.46203
   C      -18.51725        10.53354         0.41287
   C      -17.31093        10.60914        -0.49297
   C      -16.72093        12.02144        -0.53310
   C      -17.65262        10.12241        -1.90438
   C      -19.76423        11.12057         0.47753
   C      -20.52674        10.64997         1.54666
   S      -19.62882         9.48806         2.51542
   C      -21.81095        11.10874         1.89626
   C      -22.72491        10.57026         2.75540
   C      -22.85967         9.25141         3.32945
   C      -22.50850         8.06990         2.72664
   C      -22.75181         6.80131         3.28706
   N      -22.91383         5.74882         3.71632
   C      -21.96296         8.00489         1.42839
   N      -21.56933         7.91968         0.35311
   C      -23.71431         9.37605         4.50553
   C      -24.29145        10.67132         4.50766
   C      -23.76321        11.44218         3.36220
   O      -24.06572        12.56215         3.01774
   C      -25.18512        11.07602         5.46890
   C      -25.51304        10.16589         6.47994
   C      -24.91886         8.88135         6.47584
   C      -24.02280         8.46660         5.49765
   S      -25.45589         7.92442         7.82267
   C      -26.46161         9.24255         8.36339
   C      -26.39874        10.34381         7.57829
  Br      -27.49758         9.03975         9.91362
   H       -0.19047         1.75257         6.67983
   H        3.02223         2.64895         2.94242
   H        2.11008         1.16398         8.17430
   H       -1.87994         4.07671         1.11136
   H       -4.10735         2.70599         4.05443
   H       -7.55488         1.72223         2.77631
   H       -8.48693         2.01435         4.24914
   H       -6.79479         1.50752         4.35744
   H       -6.68372         5.16229         5.20753
   H       -6.25949         3.54962         5.79114
   H       -7.95791         4.03995         5.69824
   H      -10.02431         4.49667         3.66456
   H      -14.44243         9.46344        -0.78480
   H      -16.47941        12.36061         0.47177
   H      -17.43516        12.71278        -0.97290
   H      -15.81318        12.02651        -1.13057
   H      -18.09317         9.12914        -1.86470
   H      -16.75212        10.08373        -2.51165
   H      -18.36374        10.79971        -2.37015
   H      -20.15057        11.84163        -0.22005
   H      -22.08309        12.07947         1.49127
   H      -25.61938        12.06309         5.44326
   H      -23.58966         7.48053         5.53410
   H      -26.95281        11.24571         7.76413
*
