# ORCA input file
# SCF done       -245.610256670356          0.000524613402
! CAM-B3LYP def2-SVP def2/J RIJCOSX Grid4 TightSCF
%maxcore 5000
%tddft
    Mode sTDDFT
    Ethresh 5.0
    maxcore 5000
end

%pal
  nprocs 6
  end
* xyz 0 1
   C        6.17917        -7.78749        -7.95598
   O        6.59034        -7.00306        -7.13239
   C        6.84045        -8.16015        -9.22594
   C        5.95015        -8.90167       -10.02280
   C        6.36076        -9.36250       -11.26287
   C        7.65259        -9.07116       -11.68665
   C        8.52575        -8.32369       -10.89231
   C        8.11789        -7.85869        -9.64860
  Br       10.27268        -7.93771       -11.49718
  Br        8.21785        -9.70767       -13.37352
   C        4.67885        -9.03131        -9.31321
   C        3.51392        -9.50613        -9.85470
   C        3.40599        -9.99501       -11.17541
   N        3.25863       -10.40492       -12.23656
   C        2.25510        -9.51929        -9.21495
   N        1.19321        -9.53751        -8.77785
   C        4.87430        -8.49455        -7.97680
   C        3.98804        -8.62686        -6.94673
   C        4.15730        -8.29313        -5.57229
   C        5.50381        -8.19047        -4.98840
   C        6.42261        -9.22135        -5.17120
   C        7.66276        -9.16868        -4.57154
   C        7.98897        -8.09161        -3.75254
   C        7.09293        -7.03356        -3.60625
   C        5.86935        -7.07363        -4.23589
   C        9.23878        -8.07624        -2.96657
   O        9.39392        -7.43522        -1.95413
   O       10.19158        -8.87961        -3.45460
   C        3.01675        -8.11589        -4.80550
   C        1.71779        -7.93150        -5.48024
   C        0.59999        -8.68212        -5.11650
   C       -0.60198        -8.50876        -5.77284
   C       -0.71196        -7.55317        -6.77789
   C        0.39248        -6.78070        -7.12646
   C        1.60050        -6.97932        -6.49418
   C       -2.00578        -7.28893        -7.45658
   O       -2.26128        -6.23642        -8.00369
   O       -2.84939        -8.30577        -7.41580
   C        3.01576        -7.94344        -3.39601
   C        3.95459        -8.28892        -2.41060
   C        3.69159        -7.64764        -1.15193
   N        4.62500        -7.65173        -0.20229
   C        5.69607        -8.38370        -0.38943
   C        6.75626        -8.31458         0.64946
   O        6.67948        -7.57945         1.60842
   C        7.88045        -9.24330         0.43774
   C        7.92744       -10.12899        -0.56250
   C        6.89148       -10.25830        -1.60321
   O        6.95041       -11.09458        -2.47746
   C        5.79977        -9.25328        -1.51813
   N        4.95456        -9.16609        -2.51821
   C        2.46040        -6.95946        -1.10788
   S        1.72151        -7.03699        -2.67266
   C        1.96830        -6.22674         0.00678
   C        2.79015        -6.33553         1.23285
   C        2.92056        -7.56910         1.87173
   C        3.65411        -7.67556         3.03597
   C        4.25770        -6.54829         3.58569
   C        4.15806        -5.32376         2.93324
   C        3.43279        -5.22241         1.76211
   C        4.99890        -6.69485         4.86087
   O        5.27544        -7.74707         5.37359
   O        5.30540        -5.51640         5.42796
   C        0.88038        -5.38084        -0.05548
   C        0.08677        -5.28581        -1.30621
   C       -0.92982        -6.21586        -1.52246
   C       -1.63221        -6.20104        -2.70853
   C       -1.32853        -5.26288        -3.69233
   C       -0.35615        -4.29720        -3.45396
   C        0.34056        -4.30262        -2.25987
   C       -2.02925        -5.37886        -4.99576
   O       -2.90462        -6.18880        -5.19825
   O       -1.57109        -4.55641        -5.93240
   C        0.48589        -4.45568         0.95341
   C        0.59831        -4.44192         2.31119
   C        0.55781        -3.11943         3.00489
   O        0.18195        -2.07005         2.54329
   C        1.14898        -3.37517         4.33628
   C        1.34169        -4.75838         4.50272
   C        0.86857        -5.45040         3.30815
   C        0.55652        -6.77977         3.22920
   C       -0.02333        -7.36459         2.08725
   N       -0.50116        -7.87319         1.17645
   C        0.69676        -7.68243         4.30536
   N        0.77689        -8.44669         5.15630
   C        1.94275        -5.24285         5.65048
   C        2.35981        -4.33100         6.61223
   C        2.15236        -2.95908         6.44919
   C        1.53599        -2.47091         5.30367
  Br        2.72457        -1.74573         7.77745
  Br        3.24532        -4.97787         8.14552
   H        5.71572        -9.94174       -11.90345
   H        8.78189        -7.28075        -9.02475
   H        3.03418        -9.08065        -7.18433
   H        6.14800       -10.08198        -5.76235
   H        8.36612        -9.97605        -4.69764
   H        7.37547        -6.19306        -2.98985
   H        5.18299        -6.24433        -4.14223
   H       10.98359        -8.83446        -2.89581
   H        0.68984        -9.42728        -4.33997
   H       -1.46437        -9.09863        -5.50776
   H        0.29154        -6.03801        -7.90305
   H        2.46002        -6.38307        -6.76365
   H       -3.69841        -8.06062        -7.81704
   H        8.67275        -9.17856         1.17054
   H        8.75797       -10.81501        -0.66419
   H        2.44237        -8.44186         1.45091
   H        3.76661        -8.62345         3.53985
   H        4.66021        -4.46036         3.34053
   H        3.36886        -4.27506         1.24676
   H        5.79747        -5.66898         6.25138
   H       -1.14126        -6.95355        -0.76367
   H       -2.41321        -6.91954        -2.90347
   H       -0.14787        -3.55490        -4.20809
   H        1.10638        -3.56361        -2.07440
   H       -1.95888        -4.79434        -6.80433
   H        0.05980        -3.53721         0.55097
   H        2.11876        -6.29581         5.80276
   H        1.37653        -1.41237         5.16837
*
