# ORCA input file
# SCF done       -200.370138767737          0.000563127016
! CAM-B3LYP def2-SVP def2/J RIJCOSX Grid4 TightSCF
%maxcore 5000
%tddft
    Mode sTDDFT
    Ethresh 5.0
    maxcore 5000
end

%pal
  nprocs 6
  end
* xyz 0 1
   C        2.54319         2.49205         3.23352
   C        2.73800         3.76676         2.77703
   C        3.59826         4.69449         3.40406
   N        4.29049         5.47516         3.88088
   C        2.21409         4.26699         1.56753
   N        1.89081         4.69960         0.55439
   C        3.28477         1.85680         4.31653
   C        3.15356         0.44163         4.19285
   C        3.78886        -0.41553         5.04516
   C        4.58990         0.11114         6.08256
   C        4.70775         1.52441         6.22509
   C        4.04220         2.38857         5.32642
   C        5.50523         2.03746         7.26854
   C        6.15974         1.19695         8.12702
   C        6.04509        -0.19422         7.98440
   C        5.27670        -0.72551         6.98452
   C        2.26231         0.12943         3.06345
   O        1.96156        -0.95473         2.62065
   C        1.75280         1.45178         2.59136
   C        0.66762         1.51598         1.79205
   C       -0.14463         2.68389         1.51446
   C       -0.62965         2.91543         0.21650
   O       -0.29312         2.04569        -0.80072
   C        1.07720         1.99566        -1.15283
   C       -1.44957         4.02388        -0.03551
   O       -1.92233         4.42312        -1.23500
   C       -1.59400         3.75828        -2.43580
   C       -1.81487         4.85789         1.04525
   C       -1.32447         4.61189         2.32128
   C       -0.49122         3.54385         2.55579
   C       -2.67449         6.01356         0.79971
   C       -2.31895         7.29612         1.24671
   C       -3.11063         8.45951         0.91984
   N       -2.80254         9.64864         1.46962
   C       -1.71150         9.76302         2.17285
   C       -0.84282         8.63073         2.37849
   N       -1.18221         7.44546         1.95543
   C        0.36746         8.79344         3.09894
   N        1.32855         8.96852         3.69675
   C       -1.39423        11.02118         2.74313
   N       -1.10546        12.03789         3.18479
   C       -4.22905         8.38672         0.07235
   C       -4.63544         7.09713        -0.29665
   C       -3.87073         5.92339         0.07649
   N       -4.45401         4.79980        -0.35867
   S       -5.77589         5.17850        -1.16683
   N       -5.71629         6.76950        -1.01605
   C       -4.90356         9.59111        -0.38925
   C       -4.14472        10.70518        -0.80932
   O       -2.79714        10.54029        -0.91856
   C       -2.10954        11.20834        -1.96198
   C       -4.80874        11.89507        -1.12099
   O       -4.10023        13.04691        -1.39123
   C       -3.52540        13.64742        -0.23533
   C       -6.21953        11.93333        -1.19694
   C       -6.94638        10.78536        -0.86209
   C       -6.29589         9.65325        -0.43430
   C       -6.80989        13.19967        -1.52757
   C       -8.02658        13.52554        -2.03513
   C       -8.45112        14.90657        -2.23833
   C       -7.95268        16.00281        -1.58703
   C       -8.41380        17.31919        -1.79929
   N       -8.74461        18.40978        -1.93602
   C       -6.96037        15.96444        -0.58341
   N       -6.18478        16.01130         0.26243
   C       -9.56558        14.90158        -3.17320
   C       -9.91741        13.54876        -3.44201
   C       -9.02649        12.64039        -2.69532
   O       -9.09679        11.43145        -2.67815
   C      -10.93941        13.22485        -4.28717
   C      -11.66537        14.25948        -4.91835
   C      -11.31384        15.61622        -4.66019
   C      -10.25373        15.92124        -3.77669
   C      -12.04117        16.63981        -5.30145
   C      -13.06681        16.34015        -6.15591
   C      -13.41253        15.00413        -6.40886
   C      -12.72744        13.98632        -5.80275
   H        3.68278        -1.48379         4.92776
   H        4.14139         3.45402         5.46290
   H        5.59323         3.10893         7.37170
   H        6.77081         1.59939         8.92090
   H        6.56872        -0.84258         8.67084
   H        5.18466        -1.79566         6.86979
   H        0.32002         0.57498         1.37496
   H        1.46949         2.99596        -1.35830
   H        1.12892         1.38228        -2.05047
   H        1.68367         1.53872        -0.36534
   H       -2.15295         4.28701        -3.20866
   H       -1.89641         2.71049        -2.41478
   H       -0.52611         3.82952        -2.65529
   H       -1.61478         5.26005         3.13205
   H       -0.13610         3.33690         3.55421
   H       -1.25066        10.57748        -2.19519
   H       -1.75446        12.19287        -1.65152
   H       -2.73720        11.31470        -2.84885
   H       -4.30106        14.10159         0.38941
   H       -2.85823        14.42567        -0.60111
   H       -2.96388        12.92548         0.36362
   H       -8.02101        10.80179        -0.91007
   H       -6.86092         8.78740        -0.12969
   H       -6.12474        14.02739        -1.38226
   H      -11.18938        12.19085        -4.47359
   H      -10.00487        16.95680        -3.60625
   H      -11.77210        17.66675        -5.10224
   H      -13.61784        17.13122        -6.64206
   H      -14.22410        14.78573        -7.08677
   H      -12.98904        12.95580        -5.99393
*
