# ORCA input file
# SCF done       -223.178542186137          0.000460048293
! CAM-B3LYP def2-SVP def2/J RIJCOSX Grid4 TightSCF
%maxcore 5000
%tddft
    Mode sTDDFT
    Ethresh 5.0
    maxcore 5000
end

%pal
  nprocs 6
  end
* xyz 0 1
   C        0.40647        -7.84909        -5.40072
   C        0.64271        -6.86751        -4.48567
   C        1.67983        -7.04182        -3.53970
   C        2.13215        -6.21869        -2.51454
   C        1.62755        -4.85311        -2.19144
   C        1.17639        -4.71804        -0.72514
   N        0.07937        -3.77112        -0.64364
   C        2.68639        -3.79495        -2.55619
   N        2.84944        -3.75696        -3.99762
   C        3.22956        -6.90442        -1.87946
   C        4.01218        -6.58210        -0.82913
   C        5.16673        -7.42715        -0.44183
   C        5.24012        -8.75265        -1.11982
   C        4.42872        -9.08107        -2.15039
   C        3.42520        -8.18878        -2.57313
   C        2.46705        -8.26071        -3.57718
   C        2.18726        -9.25028        -4.54056
   C        1.17432        -9.04033        -5.42934
   C        6.40962        -6.70460        -0.92555
   C        7.51940        -6.57449        -0.18796
   C        8.71405        -5.90505        -0.60946
   C        9.86365        -5.95145         0.21042
   C       11.11064        -5.31606        -0.14640
   N       12.12209        -5.32265         0.71424
   C       12.00797        -5.96123         1.86488
   C       10.81389        -6.67433         2.17393
   N        9.78138        -6.64012         1.36439
   C       10.72335        -7.42518         3.37240
   N       10.68139        -8.02322         4.34904
   C       13.09655        -5.93742         2.76450
   N       13.97503        -5.94741         3.50209
   C       11.25844        -4.59744        -1.37608
   C       10.07057        -4.50852        -2.16351
   C        8.83471        -5.15732        -1.80271
   N        7.88207        -4.93790        -2.70939
   S        8.48160        -4.01445        -3.89291
   N        9.97611        -3.85335        -3.31223
   C       12.38224        -3.89236        -1.80434
   C       13.71234        -3.95860        -1.39987
   C       14.44440        -4.95388        -0.73598
   C       15.77656        -4.65918        -0.58591
   C       16.14254        -3.41456        -1.11554
   S       14.77516        -2.64017        -1.85426
   C       17.40359        -2.80555        -1.08491
   C       18.59578        -3.33662        -0.57974
   C       19.65182        -2.47052        -0.69540
   C       19.32950        -1.22729        -1.27579
   S       17.63732        -1.19062        -1.70187
   C       20.27567        -0.22186        -1.42673
   C       20.20085         1.08997        -1.88711
   C       19.04551         1.75838        -2.38684
   C       19.07804         3.15214        -2.77728
   N       17.92449         3.74879        -3.12039
   C       16.81726         3.04587        -3.19767
   C       16.80756         1.65240        -2.91887
   N       17.91793         1.06841        -2.49368
   C       15.62341         0.90025        -3.06528
   N       14.62922         0.34488        -3.20821
   C       15.63727         3.73240        -3.57608
   N       14.69949         4.30278        -3.90681
   C       20.25812         3.92928        -2.74868
   C       21.41300         3.26768        -2.26478
   C       21.38649         1.88577        -1.85581
   N       22.57613         1.45345        -1.46287
   S       23.64503         2.65738        -1.59583
   N       22.63705         3.78335        -2.15747
   C       20.25613         5.31812        -3.14737
   C       19.37856         5.78010        -4.11300
   C       19.30015         7.14978        -4.39904
   C       18.44795         7.84950        -5.25114
   C       17.37536         7.24805        -6.09324
   C       15.98372         7.73318        -5.65405
   N       15.85212         7.58438        -4.21515
   C       17.61938         7.50348        -7.59039
   N       18.80976         6.78219        -8.00292
   C       18.78496         9.24739        -5.11769
   C       18.26507        10.36010        -5.67210
   C       18.80989        11.71541        -5.38072
   C       19.92026        11.73924        -4.38040
   C       20.42423        10.62318        -3.82278
   C       19.89235         9.35439        -4.15461
   C       20.18820         8.07699        -3.71931
   C       21.12663         7.57201        -2.79194
   C       21.15454         6.24157        -2.52023
   C       19.30289        12.31970        -6.68074
   C       18.80156        13.40581        -7.23507
   H       -0.38257        -7.73070        -6.12911
   H        0.05336        -5.96354        -4.47700
   H        0.74884        -4.65540        -2.81066
   H        2.03715        -4.43971        -0.09387
   H        0.80043        -5.68335        -0.37382
   H        0.37925        -2.85167        -0.94876
   H       -0.25688        -3.69037         0.30907
   H        3.62270        -4.01687        -2.01568
   H        2.33873        -2.80615        -2.24154
   H        3.15697        -4.66302        -4.33655
   H        3.54586        -3.06940        -4.26177
   H        3.88665        -5.66305        -0.27576
   H        5.22568        -7.53612         0.64604
   H        6.02408        -9.41426        -0.78607
   H        4.52793       -10.03580        -2.64666
   H        2.77374       -10.15703        -4.56524
   H        0.94250        -9.78602        -6.17575
   H        6.36943        -6.32845        -1.93557
   H        7.56977        -6.99314         0.80863
   H       12.17069        -3.16923        -2.58408
   H       14.00025        -5.87483        -0.41171
   H       16.48112        -5.30953        -0.09993
   H       18.66709        -4.32122        -0.15353
   H       20.65243        -2.69338        -0.36824
   H       21.27087        -0.49733        -1.09366
   H       18.76335         5.08828        -4.66313
   H       17.40643         6.16371        -5.95156
   H       15.22603         7.17217        -6.22730
   H       15.86177         8.79487        -5.88645
   H       15.98851         6.61285        -3.95307
   H       14.91560         7.84213        -3.92273
   H       17.67838         8.58799        -7.77793
   H       16.77618         7.10664        -8.16344
   H       19.61655         7.11459        -7.48434
   H       18.98872         6.91633        -8.99148
   H       17.44226        10.32895        -6.37178
   H       17.98654        12.34686        -5.01783
   H       20.31442        12.71517        -4.13987
   H       21.23104        10.68031        -3.10637
   H       21.80194         8.24993        -2.29066
   H       21.85735         5.85066        -1.80300
   H       20.12791        11.78816        -7.13466
   H       17.98110        13.94803        -6.79375
   H       19.19327        13.80240        -8.15631
*
