# ORCA input file
# SCF done       -219.782215141249          0.000836950044
! CAM-B3LYP def2-SVP def2/J RIJCOSX Grid4 TightSCF
%maxcore 5000
%tddft
    Mode sTDDFT
    Ethresh 5.0
    maxcore 5000
end

%pal
  nprocs 6
  end
* xyz 0 1
   C       -1.59137        -0.55930         4.17360
   C       -0.85911        -0.49134         5.33065
   C       -0.04798        -1.54097         5.81271
   N        0.63135        -2.35084         6.26052
   C       -0.81615         0.58768         6.24004
   N       -0.72110         1.39529         7.05195
   C       -1.67837        -1.73547         3.31819
   C       -2.65174        -1.49229         2.32220
   C       -2.98102        -2.41711         1.36115
   C       -2.31046        -3.64388         1.38120
   C       -1.33158        -3.87691         2.37657
   C       -1.00247        -2.94197         3.34966
   S       -0.61997        -5.45436         2.21588
   C       -1.63488        -5.77506         0.83470
   C       -2.46368        -4.75539         0.50786
  Br       -1.50382        -7.42609        -0.04577
   C       -3.21390        -0.13781         2.49329
   O       -4.09690         0.33206         1.80567
   C       -2.46969         0.46980         3.62343
   C       -2.43620         1.76172         4.06929
   C       -3.17955         2.94346         3.76255
   C       -4.33967         2.98304         2.96727
   C       -4.97707         4.17955         2.76641
   C       -4.49753         5.36977         3.34509
   C       -3.35707         5.34580         4.14218
   C       -2.71814         4.14454         4.34558
   C       -5.36993         6.45260         2.95944
   C       -6.38671         5.93510         2.13471
   C       -6.22153         4.44556         1.95436
   C       -6.01470         4.06642         0.47606
   C       -4.84492         4.80261        -0.16576
   C       -7.42966         3.67352         2.51807
   C       -7.70200         3.98641         3.98462
   C       -7.34919         6.76277         1.61533
   C       -7.33431         8.13426         1.92151
   C       -6.31481         8.63288         2.74703
   C       -5.33728         7.80854         3.26228
   C       -8.36344         8.96840         1.35568
   C       -8.67426        10.22717         1.73681
   C       -9.69495        11.03102         1.15970
   S      -10.43042        12.26337         2.13656
   C      -11.57724        12.69775         0.91505
   C      -11.36378        11.93382        -0.24275
   C      -10.28642        11.00023        -0.11033
   C       -9.89600        10.23552        -1.22984
   C      -10.59911        10.35611        -2.39158
   F      -10.23220         9.63815        -3.46874
   C      -11.70469        11.23127        -2.49807
   F      -12.36914        11.29431        -3.66484
   C      -12.08124        12.02145        -1.45278
   C      -12.58222        13.67140         1.10701
   C      -12.80759        14.36205         2.24942
   C      -13.87066        15.31811         2.39629
   C      -14.38904        15.66160         3.69149
   C      -13.93738        15.26946         4.92453
   S      -14.87730        15.91455         6.19915
   C      -15.90984        16.71993         5.10987
   C      -15.54932        16.50836         3.79613
   C      -16.19486        17.01245         2.62522
   N      -17.26470        17.84055         2.75468
   C      -15.63125        16.71120         1.38027
   C      -14.47197        15.90306         1.31047
   C      -16.24753        17.11256         0.14473
   C      -15.57991        17.37312        -1.00522
   C      -16.21159        17.67515        -2.24031
   C      -17.39285        17.17660        -2.70569
   C      -18.16932        16.02786        -2.29436
   C      -17.68596        14.87563        -1.72271
   C      -18.48941        13.76651        -1.39535
   N      -19.11164        12.85627        -1.07352
   C      -16.32429        14.62338        -1.47327
   N      -15.22919        14.31492        -1.31152
   C      -19.50685        16.18318        -2.85803
   C      -19.48837        17.26530        -3.77428
   C      -18.14537        17.88541        -3.76924
   O      -17.75549        18.80838        -4.44862
   C      -20.58888        17.62357        -4.51335
   C      -21.76530        16.88752        -4.33288
   C      -21.77763        15.82042        -3.40378
   C      -20.66253        15.45182        -2.66107
   S      -23.33484        15.05212        -3.33307
   C      -23.93793        16.15535        -4.54142
   C      -23.02344        17.05526        -4.97404
  Br      -25.71869        16.01548        -5.11461
   H       -3.73152        -2.19958         0.61737
   H       -0.24651        -3.16837         4.08237
   H       -3.15493        -4.78391        -0.31457
   H       -1.66895         1.95209         4.81182
   H       -4.71764         2.08041         2.52051
   H       -2.98180         6.25052         4.59640
   H       -1.83508         4.11371         4.96802
   H       -6.93065         4.29106        -0.07445
   H       -5.84064         2.99066         0.41630
   H       -4.99859         5.87925        -0.13076
   H       -4.74232         4.50346        -1.20616
   H       -3.91587         4.57098         0.35050
   H       -7.24050         2.60462         2.40352
   H       -8.31167         3.92389         1.92499
   H       -6.84375         3.72552         4.60008
   H       -8.56029         3.41755         4.33462
   H       -7.91274         5.04518         4.12089
   H       -8.12914         6.37145         0.97762
   H       -6.28417         9.68838         2.96942
   H       -4.55641         8.21267         3.88926
   H       -8.96545         8.49467         0.59308
   H       -8.17865        10.66438         2.59374
   H       -9.03567         9.58921        -1.19628
   H      -12.91245        12.69794        -1.56771
   H      -13.23368        13.82486         0.25984
   H      -12.19591        14.15492         3.11700
   H      -13.10258        14.64279         5.16302
   H      -16.71630        17.30670         5.50296
   H      -17.73668        17.89593         3.63876
   H      -17.78720        18.09686         1.93569
   H      -14.09279        15.69031         0.32593
   H      -17.32950        17.20546         0.13228
   H      -14.50281        17.46495        -0.97943
   H      -15.74016        18.42330        -2.86927
   H      -20.54388        18.44314        -5.21322
   H      -20.71872        14.63221        -1.96380
   H      -23.22513        17.80647        -5.71562
*
