# ORCA input file
# SCF done       -215.437817270617          0.000737336918
! CAM-B3LYP def2-SVP def2/J RIJCOSX Grid4 TightSCF
%maxcore 5000
%tddft
    Mode sTDDFT
    Ethresh 5.0
    maxcore 5000
end

%pal
  nprocs 6
  end
* xyz 0 1
   C       -3.67004        -1.12141         2.20790
   C       -2.59155        -1.68054         1.57569
   C       -1.95536        -2.86621         1.99942
   N       -1.40367        -3.82908         2.29297
   C       -1.94484        -1.13493         0.44580
   N       -1.35227        -0.74541        -0.45741
   C       -4.28833        -1.60984         3.43167
   C       -5.25509        -0.66709         3.85777
   C       -6.01364        -0.84546         4.98941
   C       -5.81065        -2.01185         5.73401
   C       -4.84580        -2.95137         5.29691
   C       -4.07667        -2.76962         4.15484
   S       -4.76454        -4.32502         6.35786
   C       -6.01048        -3.62925         7.35997
   C       -6.46381        -2.42917         6.92589
  Br       -6.59283        -4.55170         8.88562
   C       -5.30362         0.46416         2.90792
   O       -6.02781         1.43109         2.99148
   C       -4.34789         0.10848         1.82500
   C       -4.29575         0.66862         0.58728
   C       -4.91579         1.88473         0.13879
   C       -5.03605         3.02130         0.95398
   C       -5.66393         4.13600         0.45648
   C       -6.19374         4.14032        -0.84693
   C       -6.04312         3.03457        -1.67584
   C       -5.38640         1.92851        -1.18509
   C       -6.82573         5.41576        -1.08323
   C       -6.67224         6.21412         0.06643
   C       -5.91076         5.46305         1.13430
   C       -6.75253         5.29320         2.41306
   C       -8.05517         4.54123         2.17068
   C       -4.58606         6.16907         1.48140
   C       -3.69051         6.38457         0.26732
   C       -7.18700         7.48537         0.10948
   C       -7.88909         7.98751        -1.00119
   C       -8.04610         7.16688        -2.13260
   C       -7.51629         5.89714        -2.18817
   C       -8.46510         9.30082        -1.03344
   C       -8.27879        10.30770        -0.14015
   C       -8.89909        11.56340        -0.28459
   C       -8.69900        12.64659         0.52803
   C       -9.30525        13.92207         0.39747
   C       -8.90108        14.83422         1.32002
   C       -7.94581        14.33632         2.23896
   S       -7.59491        12.65599         1.89826
   C       -7.32982        15.03429         3.25554
   C       -7.50722        16.39398         3.60105
   C       -6.73166        16.81849         4.63322
   C       -5.88920        15.81328         5.17565
   S       -6.13901        14.29534         4.31109
   C       -5.00158        15.96171         6.19836
   N       -4.23083        14.94618         6.67409
   C       -3.30261        15.04072         7.64369
   S       -2.95149        16.56854         8.38994
   C       -1.76100        15.78655         9.39013
   N       -1.05667        16.59700        10.28251
   O       -0.19990        16.07755        10.97384
   O       -1.35694        17.78138        10.29116
   C       -1.65313        14.44428         9.16598
   C       -2.52693        13.97896         8.16056
   C       -2.63692        12.62796         7.72340
   C       -1.96104        11.58024         8.26317
   C       -2.10734        10.25593         7.79920
   C       -1.59830         9.12894         8.37831
   C       -0.99413         8.91608         9.67391
   C       -1.28104         9.59269        10.83270
   C       -0.70380         9.28450        12.08153
   N       -0.25022         9.08108        13.11610
   C       -2.27449        10.58828        10.93849
   N       -3.10550        11.36627        11.08747
   C       -0.20517         7.69090         9.58593
   C       -0.50625         7.04537         8.35962
   C       -1.45346         7.87987         7.59047
   O       -1.96738         7.62768         6.52311
   C        0.05711         5.84436         8.00364
   C        0.96918         5.26153         8.89064
   C        1.27307         5.92236        10.10456
   C        0.69513         7.13186        10.47152
   S        2.43564         5.03567        11.04246
   C        2.49424         3.80283         9.81078
   C        1.68673         4.04188         8.75033
  Br        3.61813         2.31871        10.04014
   H       -6.74294        -0.10915         5.28904
   H       -3.35915        -3.51628         3.85811
   H       -7.22819        -1.86090         7.42371
   H       -3.78508         0.11011        -0.18951
   H       -4.61306         3.01986         1.94478
   H       -6.42619         3.04395        -2.68506
   H       -5.25867         1.05711        -1.81117
   H       -6.96957         6.28345         2.81949
   H       -6.16125         4.74821         3.15041
   H       -8.64684         5.02634         1.39660
   H       -8.64189         4.51286         3.08572
   H       -7.85077         3.51782         1.86638
   H       -4.05487         5.56806         2.22166
   H       -4.81458         7.13370         1.93899
   H       -3.43130         5.43440        -0.19485
   H       -2.77134         6.88242         0.56693
   H       -4.18964         7.00253        -0.47625
   H       -7.07110         8.09320         0.99349
   H       -8.59092         7.55489        -2.98150
   H       -7.64166         5.28665        -3.06981
   H       -9.10175         9.50511        -1.88661
   H       -7.62390        10.18098         0.71114
   H       -9.58558        11.69469        -1.11165
   H      -10.02030        14.12009        -0.38148
   H       -9.25652        15.84768         1.36492
   H       -8.20079        17.02213         3.07236
   H       -6.72963        17.81856         5.02706
   H       -4.87935        16.92241         6.67490
   H       -4.37714        14.03566         6.25065
   H       -0.96477        13.83316         9.71892
   H       -3.33833        12.41482         6.92611
   H       -1.26876        11.75638         9.07140
   H       -2.60459        10.10665         6.84667
   H       -0.19428         5.36869         7.06867
   H        0.96068         7.60260        11.40363
   H        1.60081         3.38732         7.90229
*
