# ORCA input file
# SCF done       -225.558317372886          0.000977835623
! CAM-B3LYP def2-SVP def2/J RIJCOSX Grid4 TightSCF
%maxcore 5000
%tddft
    Mode sTDDFT
    Ethresh 5.0
    maxcore 5000
end

%pal
  nprocs 6
  end
* xyz 0 1
   C        2.48469        -1.87690       -14.39540
   C        2.24268        -3.11339       -13.85063
   C        3.11334        -4.21452       -13.97187
   N        3.78856        -5.14192       -14.02933
   C        1.08518        -3.46384       -13.12487
   N        0.16641        -3.84186       -12.54853
   C        3.62497        -1.52475       -15.23464
   C        3.46032        -0.19288       -15.68566
   C        4.37394         0.43003       -16.49927
   C        5.50131        -0.29885       -16.89419
   C        5.65726        -1.62808       -16.43752
   C        4.73539        -2.25710       -15.60961
   S        7.12513        -2.34190       -17.03597
   C        7.50151        -0.86472       -17.88212
   C        6.57906         0.11354       -17.72561
  Br        9.08030        -0.75163       -18.88928
   C        2.21571         0.36952       -15.11781
   O        1.85616         1.52592       -15.19553
   C        1.61538        -0.72512       -14.32239
   C        0.52843        -0.58362       -13.50322
   C       -0.45269         0.43246       -13.60301
   C       -1.14812         0.86176       -12.45065
   C       -2.13831         1.91197       -12.49142
   N       -2.77214         2.25596       -11.37907
   C       -2.48813         1.65456       -10.23436
   C       -1.45351         0.67663       -10.18735
   N       -0.81503         0.30847       -11.27144
   C       -1.08854         0.12940        -8.93042
   N       -0.82058        -0.25020        -7.88310
   C       -3.19758         1.97521        -9.05851
   N       -3.73306         2.17296        -8.06246
   C       -2.47149         2.59130       -13.70615
   C       -1.83997         2.06784       -14.87542
   C       -0.86336         1.01312       -14.82941
   N       -0.47564         0.64540       -16.04555
   S       -1.21528         1.56800       -17.13430
   N       -2.09462         2.45862       -16.11924
   C       -3.34273         3.66789       -13.85336
   C       -4.04939         4.42992       -12.93115
   C       -4.84859         5.53443       -13.30646
   C       -5.42999         6.20451       -12.26307
   C       -5.09913         5.65134       -11.01904
   S       -4.07261         4.23943       -11.20524
   C       -5.46396         6.01481        -9.72730
   C       -6.38712         6.97712        -9.25904
   C       -6.52531         6.98648        -7.90271
   C       -5.70601         6.04199        -7.22656
   S       -4.73351         5.16428        -8.40447
   C       -5.70696         5.69911        -5.90395
   C       -4.85310         4.68031        -5.36164
   C       -5.36394         3.77737        -4.41033
   C       -4.63092         2.66479        -4.07792
   C       -3.37383         2.44105        -4.67550
   C       -2.80475         3.39344        -5.51077
   C       -3.54407         4.50457        -5.84211
   C       -2.90400         1.13190        -4.29819
   C       -3.84957         0.55127        -3.43316
   C       -4.99532         1.50730        -3.17421
   C       -4.94431         1.90573        -1.68109
   C       -5.91632         2.99931        -1.25840
   C       -6.34792         0.88493        -3.55568
   C       -6.34915         0.31933        -4.97173
   C       -3.66836        -0.72158        -2.95451
   C       -2.54840        -1.45818        -3.37331
   C       -1.63030        -0.87443        -4.26009
   C       -1.78804         0.41681        -4.71414
   C       -2.35165        -2.82687        -2.97335
   C       -2.91706        -3.44210        -1.91185
   C       -2.68969        -4.80665        -1.57347
   C       -2.41564        -5.84831        -2.40213
   C       -2.51284        -6.01164        -3.84073
   C       -3.39959        -5.39318        -4.68191
   C       -3.54016        -5.72079        -6.04686
   N       -3.69991        -5.95835        -7.15814
   C       -4.34529        -4.42864        -4.27877
   N       -5.16247        -3.66511        -4.02042
   C       -1.68550        -7.15945        -4.19884
   C       -1.29632        -7.83025        -3.01174
   C       -1.81375        -7.09036        -1.84391
   O       -1.73158        -7.39324        -0.67564
   C       -0.53582        -8.97436        -3.02778
   C       -0.13007        -9.47095        -4.27087
   C       -0.50791        -8.78252        -5.44924
   C       -1.28461        -7.63052        -5.43456
   S        0.11439        -9.56029        -6.87227
   C        0.85903       -10.78569        -5.88029
   C        0.65533       -10.62231        -4.55141
  Br        1.83377       -12.16715        -6.69103
   H        4.22414         1.44782       -16.82390
   H        4.90227        -3.26949       -15.28158
   H        6.65414         1.08686       -18.17515
   H        0.40029        -1.26511       -12.67157
   H       -3.46431         3.98113       -14.88456
   H       -4.96659         5.81002       -14.33992
   H       -6.05925         7.07024       -12.37359
   H       -6.94082         7.60840        -9.93120
   H       -7.19527         7.63416        -7.36472
   H       -6.46124         6.13712        -5.26275
   H       -6.36314         3.92836        -4.02988
   H       -1.81313         3.25271        -5.91093
   H       -3.10643         5.26746        -6.46747
   H       -3.92616         2.23428        -1.45520
   H       -5.13913         1.00734        -1.09162
   H       -5.69303         3.93371        -1.76634
   H       -5.82610         3.16772        -0.18739
   H       -6.94445         2.71741        -1.46874
   H       -7.12528         1.64600        -3.47271
   H       -6.58152         0.08654        -2.84901
   H       -6.05448         1.07811        -5.69378
   H       -7.34434        -0.03563        -5.22870
   H       -5.65955        -0.51705        -5.05353
   H       -4.40372        -1.18260        -2.31442
   H       -0.78365        -1.45518        -4.59501
   H       -1.07986         0.84414        -5.40594
   H       -1.64686        -3.38841        -3.57628
   H       -3.50648        -2.87093        -1.20833
   H       -2.67588        -5.05025        -0.51522
   H       -0.26000        -9.47022        -2.11040
   H       -1.54109        -7.13382        -6.35576
   H        1.04218       -11.28486        -3.79890
*
