# ORCA input file
# SCF done       -185.296351749402          0.000649752331
! CAM-B3LYP def2-SVP def2/J RIJCOSX Grid4 TightSCF
%maxcore 5000
%tddft
    Mode sTDDFT
    Ethresh 5.0
    maxcore 5000
end

%pal
  nprocs 6
  end
* xyz 0 1
   C        7.29196        15.64955        -1.42284
   C        7.60048        14.62573        -0.57060
   C        8.04157        14.80497         0.75870
   N        8.40167        14.88757         1.84544
   C        7.52093        13.25065        -0.88231
   N        7.49242        12.11537        -1.04846
   C        7.38283        17.06991        -1.12093
   C        6.95823        17.81602        -2.24913
   C        6.92972        19.18996        -2.25988
   C        7.34762        19.86275        -1.10758
   C        7.77492        19.10979         0.01355
   C        7.79865        17.72238         0.02797
   S        8.24864        20.13878         1.33149
   C        7.87144        21.54576         0.37293
   C        7.41449        21.26279        -0.87026
  Br        8.11589        23.25471         1.10423
   C        6.55919        16.89504        -3.33179
   O        6.05080        17.19093        -4.38561
   C        6.83301        15.52236        -2.80461
   C        6.63038        14.40033        -3.51398
   C        6.28062        14.40697        -4.94051
   N        7.15787        14.96664        -5.76958
   C        6.83517        14.95271        -7.05362
   C        5.66870        14.38467        -7.52701
   C        4.82319        13.78399        -6.58086
   N        5.15666        13.80681        -5.28311
   C        3.58314        13.11633        -6.88074
   C        3.11252        12.84321        -8.11822
   C        1.88875        12.17785        -8.41923
   C        0.93663        11.81932        -7.52034
   C       -0.26719        11.16216        -7.85888
   O       -0.55378        10.78730        -9.13491
   C       -1.77499        10.19253        -9.14442
   C       -2.28645        10.18718        -7.84591
   C       -1.32611        10.80030        -7.02617
   O       -1.39657        11.00848        -5.69465
   O       -3.47206         9.69704        -7.38797
   C       -2.34056         9.68051       -10.33199
   C       -1.70953         9.69012       -11.54333
   C       -2.22221         9.17935       -12.75243
   C       -3.47203         8.64725       -12.94090
   C       -3.92783         8.12954       -14.15523
   C       -5.18888         7.61071       -14.34803
   C       -5.71505         7.05245       -15.53429
   C       -7.00479         6.62073       -15.43122
   C       -7.57575         6.81892       -14.15654
   S       -6.40878         7.56405       -13.08343
   C       -8.85551         6.51529       -13.73576
   C       -9.88745         5.88282       -14.46666
   C      -11.04293         5.73255       -13.76704
   C      -10.99821         6.22530       -12.43379
   S       -9.41359         6.90893       -12.12364
   C      -12.05443         6.24252       -11.56911
   C      -12.11047         6.68087       -10.22255
   S      -13.62085         7.39570        -9.70983
   C      -13.00754         7.71193        -8.12022
   C      -11.71189         7.24899        -7.99678
   C      -11.20756         6.65252        -9.17092
   C       -9.90062         5.90989        -9.18473
   O      -10.06359         4.76432        -9.99916
   C       -8.87800         4.07163       -10.29548
   C       -9.50093         5.56558        -7.74421
   C       -9.49985         6.83012        -6.90007
   C      -10.92697         7.36130        -6.71512
   O      -10.94031         8.72381        -6.32117
   C      -10.48841         8.96353        -5.01350
   C      -13.81831         8.35278        -7.12455
   C      -15.08108         8.73257        -7.30907
   H        6.59684        19.72822        -3.13336
   H        8.13004        17.19558         0.90709
   H        7.13493        22.00914        -1.59118
   H        6.72324        13.42004        -3.06743
   H        7.55325        15.41637        -7.71848
   H        5.42608        14.40528        -8.57595
   H        3.03551        12.80620        -6.00344
   H        3.70374        13.12883        -8.97863
   H        1.70385        11.95280        -9.46085
   H        1.04263        12.03567        -6.46848
   H       -2.23978        10.65746        -5.38016
   H       -3.97673         9.33624        -8.12460
   H       -3.32778         9.25018       -10.23675
   H       -0.71659        10.11707       -11.57257
   H       -1.56131         9.21562       -13.60906
   H       -4.17150         8.61663       -12.11598
   H       -3.25673         8.12729       -15.00429
   H       -5.12274         6.98599       -16.43006
   H       -7.55883         6.17362       -16.23704
   H       -9.74559         5.55609       -15.48125
   H      -11.93464         5.27324       -14.15585
   H      -13.00910         5.95450       -11.99410
   H       -9.10909         6.55185        -9.61515
   H       -9.12464         3.38124       -11.10082
   H       -8.51019         3.49946        -9.43659
   H       -8.09019         4.75544       -10.63347
   H       -8.50710         5.11553        -7.73713
   H      -10.21216         4.84025        -7.34244
   H       -8.90943         7.60365        -7.39758
   H       -9.05215         6.62779        -5.92543
   H      -11.43571         6.75892        -5.93745
   H      -10.70090        10.01130        -4.80790
   H       -9.41190         8.79013        -4.90994
   H      -11.01939         8.33483        -4.28690
   H      -13.32680         8.53161        -6.17983
   H      -15.58292         8.57729        -8.25030
   H      -15.64619         9.21116        -6.52934
*
