# ORCA input file
# SCF done       -221.622629451880          0.000724192047
! CAM-B3LYP def2-SVP def2/J RIJCOSX Grid4 TightSCF
%maxcore 5000
%tddft
    Mode sTDDFT
    Ethresh 5.0
    maxcore 5000
end

%pal
  nprocs 6
  end
* xyz 0 1
   C       -0.71485        -1.04770         1.72552
   C       -0.65386        -2.13389         0.89407
   C        0.40530        -3.06614         0.88949
   N        1.23923        -3.85361         0.84841
   C       -1.61148        -2.43924        -0.09747
   N       -2.32968        -2.73153        -0.94363
   C        0.30984        -0.63281         2.67315
   C       -0.05806         0.62067         3.22258
   C        0.71654         1.27778         4.14814
   C        1.91341         0.67367         4.54596
   C        2.27096        -0.58057         3.99384
   C        1.48604        -1.24755         3.06186
   S        3.78390        -1.15028         4.62876
   C        3.91684         0.28446         5.61092
   C        2.88124         1.14677         5.47324
  Br        5.40816         0.50866         6.72467
   C       -1.35751         1.04480         2.66877
   O       -1.99469         2.02133         3.00017
   C       -1.76347        -0.04289         1.73699
   C       -2.99303        -0.15469         1.16882
   C       -3.93553         0.91161         1.05270
   C       -5.32046         0.66374         1.13233
   C       -6.28627         1.72922         1.08204
   N       -7.58597         1.44469         1.21727
   C       -7.97497         0.20383         1.36343
   C       -7.01019        -0.85890         1.39249
   N       -5.73186        -0.60728         1.29495
   C       -7.44656        -2.20087         1.54477
   N       -7.83888        -3.26826         1.67617
   C       -9.35744        -0.07492         1.50063
   N      -10.46857        -0.33224         1.60508
   C       -5.91293         3.09392         0.93172
   C       -4.53758         3.31178         0.70375
   C       -3.56909         2.23868         0.76317
   N       -2.34837         2.65370         0.42123
   S       -2.40263         4.21514         0.08915
   N       -3.96254         4.46009         0.33192
   C       -6.89992         4.12253         0.96839
   S       -8.54595         3.72584         0.52573
   C       -9.03594         5.33604         0.77332
   C       -8.02407         6.14064         1.22717
   C       -6.79395         5.45972         1.33564
   C       -5.59377         6.13546         1.90701
   C       -6.01268         7.34066         2.74539
   C       -6.87820         8.27304         1.90801
   C       -8.20673         7.60140         1.55911
   C       -8.81764         8.20844         0.31472
   O       -8.22966         8.67327        -0.61313
   O      -10.17808         8.12221         0.38702
   C      -10.92752         8.30163        -0.73390
   C      -12.07872         9.10138        -0.68573
   C      -12.90779         9.27810        -1.85460
   N      -14.06988         9.93728        -1.73136
   C      -14.36311        10.53077        -0.60416
   C      -13.46084        10.47021         0.51484
   N      -12.39010         9.72730         0.46317
   C      -13.76841        11.17942         1.70442
   N      -14.05595        11.76657         2.64393
   C      -15.59322        11.23106        -0.52703
   N      -16.57190        11.82473        -0.49387
   C      -12.55422         8.74813        -3.11425
   C      -11.42055         7.91877        -3.13181
   C      -10.62090         7.68417        -1.94926
   N       -9.60896         6.84096        -2.19381
   S       -9.64366         6.42989        -3.73326
   N      -10.93398         7.25637        -4.18483
   C      -13.33258         8.95522        -4.29742
   C      -14.16388         9.98234        -4.58860
   C      -14.37702        11.28060        -3.97203
   C      -13.42117        12.07216        -3.39369
   C      -13.66855        13.36979        -2.90077
   N      -13.82080        14.41965        -2.46407
   C      -12.08602        11.65885        -3.21970
   N      -10.99782        11.33942        -3.04147
   C      -15.73352        11.68854        -4.30194
   C      -16.23783        10.82627        -5.31128
   C      -15.23032         9.79650        -5.62465
   O      -15.26566         8.94468        -6.47759
   C      -17.49780        10.97459        -5.84006
   C      -18.29842        12.00627        -5.33861
   C      -17.79038        12.84814        -4.31677
   C      -16.51225        12.70927        -3.79144
   S      -18.95419        14.03730        -3.82910
   C      -20.09096        13.40684        -4.99111
   C      -19.62536        12.35483        -5.70762
  Br      -21.78430        14.19134        -5.14965
   H        0.40955         2.23003         4.55152
   H        1.79575        -2.20454         2.67627
   H        2.80173         2.07775         6.00418
   H       -3.33889        -1.11641         0.81178
   H      -10.06056         5.60753         0.61299
   H       -4.95079         6.46919         1.08942
   H       -5.01652         5.43000         2.50708
   H       -5.12326         7.86889         3.08958
   H       -6.57059         7.00858         3.62356
   H       -6.35796         8.52136         0.98090
   H       -7.07438         9.20163         2.44520
   H       -8.92747         7.69318         2.37776
   H      -13.29390         8.14963        -5.02342
   H      -17.85807        10.31236        -6.61160
   H      -16.17117        13.36042        -3.00354
   H      -20.19399        11.84467        -6.46349
*
