# ORCA input file
# SCF done       -157.973943996617          0.000650938486
! CAM-B3LYP def2-SVP def2/J RIJCOSX Grid4 TightSCF
%maxcore 5000
%tddft
    Mode sTDDFT
    Ethresh 5.0
    maxcore 5000
end

%pal
  nprocs 6
  end
* xyz 0 1
   C       -3.40539        -2.96860        -4.87828
   C       -3.27288        -2.59489        -3.56452
   C       -3.61109        -1.28169        -2.99490
   O       -3.47525        -1.02453        -1.81751
   O       -4.08495        -0.34786        -3.82307
   C       -2.74237        -3.67157        -2.76072
   C       -2.50320        -4.79427        -3.50571
   S       -2.90882        -4.57327        -5.15938
   N       -2.54652        -3.47739        -1.41874
   C       -2.05796        -4.29965        -0.46847
   S       -1.51348        -5.91126        -0.78618
   C       -1.12081        -6.10801         0.89597
   N       -0.58251        -7.33662         1.27191
   O       -0.30085        -7.50833         2.44368
   O       -0.43342        -8.15933         0.37880
   C       -1.39594        -4.99794         1.64708
   C       -1.93545        -3.94244         0.88853
   C       -2.32226        -2.65864         1.40168
   C       -2.27834        -2.28979         2.69805
   C       -2.67796        -1.00390         3.16068
   C       -2.68271        -0.57541         4.48198
   C       -2.26867        -1.42435         5.52084
   N       -1.92031        -2.16235         6.32670
   C       -3.14308         0.76111         4.62367
   C       -3.47384         1.30757         3.38866
   S       -3.24057         0.23809         2.06182
   S       -4.05387         2.94100         3.43558
   C       -3.85394         2.90157         5.15781
   C       -3.36767         1.70334         5.67113
   C       -3.24122         1.76298         7.08085
   C       -2.78304         0.73791         7.91615
   N       -2.41526        -0.06600         8.64906
   C       -3.63704         3.00059         7.60714
   S       -4.16490         4.10600         6.35022
   C       -3.63125         3.33726         8.96815
   C       -4.02356         4.52317         9.53779
   C       -4.02020         4.81302        10.92555
   C       -4.47328         6.05842        11.23975
   C       -4.85524         6.82726        10.12017
   S       -4.61779         5.90870         8.64500
   C       -5.35866         8.11455        10.09511
   C       -5.61329         8.96732        11.19357
   C       -6.12915        10.18031        10.85177
   C       -6.31139        10.36940         9.46013
   S       -5.77807         8.91683         8.60518
   C       -6.77192        11.43160         8.72620
   C       -7.33194        12.65714         9.15141
   C       -7.60119        13.71635         8.27879
   C       -8.17833        14.78262         9.00975
   C       -8.61026        16.03307         8.62760
   C       -9.15717        16.86592         9.61750
   C       -9.66747        18.15403         9.55757
   C      -10.10649        18.54436        10.86331
   C       -9.86651        17.49281        11.72751
   C       -9.26993        16.41823        10.99496
   C       -8.84135        15.17766        11.38004
   C       -8.28213        14.34005        10.38881
   C       -7.76782        13.06077        10.46106
   C      -10.69588        19.80789        11.23542
   C      -10.90776        20.83464        10.41656
   H       -3.76954        -2.39767        -5.71160
   H       -4.15671        -0.64272        -4.73916
   H       -2.11728        -5.74186        -3.19528
   H       -2.82467        -2.53261        -1.12669
   H       -1.20604        -4.96327         2.70390
   H       -2.68220        -1.92860         0.68760
   H       -1.93757        -2.96872         3.46692
   H       -3.28197         2.56138         9.63825
   H       -3.68493         4.08547        11.64331
   H       -4.54092         6.44059        12.24253
   H       -5.40602         8.66405        12.20427
   H       -6.34821        10.95007        11.56757
   H       -6.69847        11.32242         7.65047
   H       -7.39324        13.72436         7.22473
   H       -8.53677        16.36893         7.60289
   H       -9.72635        18.76367         8.67468
   H      -10.08699        17.47376        12.77935
   H       -8.91952        14.83813        12.40356
   H       -7.74256        12.45455        11.34662
   H      -10.97397        19.89013        12.27904
   H      -10.64657        20.80189         9.37268
   H      -11.35157        21.75061        10.76622
*
