# ORCA input file
# SCF done       -182.714945734458          0.000900124555
! CAM-B3LYP def2-SVP def2/J RIJCOSX Grid4 TightSCF
%maxcore 5000
%tddft
    Mode sTDDFT
    Ethresh 5.0
    maxcore 5000
end

%pal
  nprocs 6
  end
* xyz 0 1
   C        0.46217        -4.41276        -2.33952
   O       -0.15180        -5.38050        -1.93001
   C        1.47992        -4.41296        -3.41277
   C        1.94189        -3.10069        -3.61835
   C        2.91533        -2.86200        -4.57701
   C        3.40360        -3.93115        -5.31413
   C        2.92597        -5.21655        -5.09867
   C        1.95532        -5.48248        -4.14161
  Br        3.62074        -6.64636        -6.13885
   C        1.22834        -2.20524        -2.70897
   C        1.32362        -0.83560        -2.70469
   C        2.18606        -0.10340        -3.54612
   N        2.86428         0.54733        -4.20558
   C        0.54635         0.03224        -1.91072
   N       -0.07554         0.79819        -1.32114
   C        0.36631        -3.02414        -1.88410
   C       -0.35075        -2.56813        -0.80400
   C       -1.23767        -3.23430         0.04642
   S       -1.77676        -4.88327        -0.12444
   C       -2.86754        -4.71278         1.21093
   C       -2.81511        -3.43034         1.76737
   C       -1.88113        -2.61865         1.13503
   C       -1.54879        -1.22283         1.59660
   C       -0.11407        -1.08518         1.74591
   N        1.01166        -0.99240         1.91892
   C       -2.20202        -0.91680         2.95329
   C       -3.63654        -1.41976         2.97823
   C       -3.66315        -2.95358         2.91976
   O       -4.97674        -3.45754         2.75240
   C       -5.81247        -3.31465         3.87308
   C       -3.65057        -5.80937         1.65057
   C       -3.52351        -7.05818         1.14571
   N       -4.26975        -8.10954         1.57595
   C       -4.10994        -9.40692         1.21525
   S       -2.86085        -9.88112         0.11054
   C       -3.33532       -11.53985         0.31947
   N       -2.62969       -12.51192        -0.39072
   O       -2.95266       -13.67720        -0.23395
   O       -1.73165       -12.11971        -1.11927
   C       -4.38501       -11.70491         1.18125
   C       -4.86225       -10.48764         1.71022
   C       -5.96592       -10.35623         2.60872
   C       -6.53169       -11.39502         3.28256
   C       -7.64444       -11.28439         4.13041
   C       -8.14734       -12.33416         4.86213
   C       -9.28004       -12.33134         5.70977
   C       -9.52620       -13.52487         6.32261
   C       -8.59555       -14.53464         6.00426
   S       -7.40434       -13.92454         4.87441
   C       -8.53353       -15.83022         6.48413
   C       -9.40896       -16.47317         7.38614
   C       -9.05107       -17.75377         7.68017
   C       -7.86975       -18.20296         7.03657
   S       -7.24444       -16.91245         6.01848
   C       -7.30505       -19.44193         7.19951
   C       -6.12554       -19.96800         6.63309
   C       -5.63444       -21.25212         6.89405
   C       -4.42958       -21.43805         6.17478
   C       -3.56067       -22.50447         6.09165
   C       -2.42753       -22.36085         5.27621
   C       -1.38261       -23.22912         4.98945
   C       -0.47399       -22.58655         4.09180
   C       -0.96000       -21.31870         3.82541
   C       -2.18142       -21.13073         4.54377
   C       -3.04145       -20.06904         4.62002
   C       -4.18149       -20.20901         5.44162
   C       -5.20973       -19.33244         5.72448
   C        0.74208       -23.13965         3.54583
   C        1.22060       -24.35547         3.79552
   H        3.30146        -1.87284        -4.75979
   H        4.16210        -3.76313        -6.06320
   H        1.58198        -6.47983        -3.96799
   H       -0.20973        -1.52367        -0.56217
   H       -1.88478        -0.49422         0.84617
   H       -2.17131         0.15865         3.13364
   H       -1.63275        -1.40750         3.74761
   H       -4.19161        -1.03180         2.12140
   H       -4.12604        -1.07667         3.89065
   H       -3.24374        -3.35563         3.86318
   H       -6.71402        -3.88393         3.65267
   H       -6.08984        -2.27155         4.05329
   H       -5.33773        -3.71685         4.77723
   H       -4.37289        -5.61237         2.42833
   H       -2.79835        -7.28099         0.37574
   H       -4.98064        -7.91714         2.27235
   H       -4.79636       -12.67340         1.39697
   H       -6.37848        -9.36573         2.75536
   H       -6.10233       -12.38270         3.18493
   H       -8.14306       -10.32808         4.21848
   H       -9.87978       -11.44741         5.83854
   H      -10.34482       -13.69979         6.99782
   H      -10.27310       -15.97739         7.79054
   H       -9.59715       -18.39620         8.34883
   H       -7.83616       -20.10933         7.86870
   H       -6.09456       -21.97903         7.53813
   H       -3.73748       -23.42272         6.63397
   H       -1.27277       -24.22529         5.37718
   H       -0.50334       -20.58654         3.18487
   H       -2.86772       -19.15025         4.07823
   H       -5.30871       -18.33836         5.33105
   H        1.28449       -22.47735         2.88265
   H        0.71914       -25.04876         4.44903
   H        2.13935       -24.69981         3.35347
*
