# ORCA input file
# SCF done       -175.544766230083          0.000509637776
! CAM-B3LYP def2-SVP def2/J RIJCOSX Grid4 TightSCF
%maxcore 5000
%tddft
    Mode sTDDFT
    Ethresh 5.0
    maxcore 5000
end

%pal
  nprocs 6
  end
* xyz 0 1
   C       -0.43245       -10.70331        -2.30722
   C        0.54654       -11.55373        -1.89356
   C        1.42361       -10.96391        -0.96738
   C        1.07852        -9.65197        -0.69700
   S       -0.31700        -9.14651        -1.57706
   C        1.88307        -8.92905         0.22589
   C        2.96312        -9.58627         0.79410
  Ge        3.02005       -11.42470         0.08904
   C        4.63057       -11.80201        -1.00786
   C        2.69187       -12.80920         1.47312
   C        3.66972        -8.77131         1.67786
   C        3.14397        -7.50118         1.79357
   S        1.73328        -7.30320         0.77951
   C        3.60547        -6.43023         2.60225
   C        3.06282        -5.16762         2.73625
   C        3.75915        -4.35628         3.62866
   C        4.85414        -5.00623         4.18402
   S        5.02401        -6.62292         3.60391
   C        5.63982        -4.29536         5.12287
   C        5.25590        -2.99662         5.43782
  Ge        3.66677        -2.53452         4.36949
   C        4.01921        -1.11880         3.02392
   C        2.04133        -2.18324         5.45225
   C        6.09546        -2.41708         6.38385
   C        7.12082        -3.24833         6.79324
   S        7.04595        -4.79743         5.98621
   C        8.13996        -2.97457         7.73888
   C        9.22766        -3.75889         8.07102
   C       10.02445        -3.16482         9.05205
   C        9.53403        -1.92052         9.47800
   S        8.09880        -1.47441         8.66080
   C       10.40013        -1.40810        10.47387
   C       11.44666        -2.32193        10.67388
   C       11.24613        -3.45621         9.78570
   C       12.03763        -4.56157         9.66569
   C       11.74143        -5.60684         8.76688
   N       11.51106        -6.46391         8.04015
   C       13.20901        -4.73682        10.43069
   N       14.16478        -4.88949        11.04606
   C       12.35473        -1.90700        11.65036
   C       12.00445        -0.69027        12.20312
   S       10.52845        -0.04110        11.49432
   C       12.66889         0.02950        13.22680
   C       12.26157         1.19637        13.84542
   C       13.13959         1.63774        14.83009
   C       14.24069         0.79926        14.96389
   S       14.18892        -0.53905        13.87699
   C       15.21363         1.13847        15.93469
   C       14.99863         2.27837        16.69919
  Ge       13.29625         3.09682        16.14383
   C       13.49337         4.89572        15.32962
   C       11.89279         3.03304        17.54563
   C       16.02598         2.50058        17.61276
   C       17.02622         1.55024        17.55781
   S       16.68914         0.34110        16.34252
   C       18.20826         1.47647        18.33970
   C       19.22231         0.54384        18.26891
   C       20.24536         0.76503        19.19037
   C       20.00859         1.88148        19.97702
   S       18.52484         2.66543        19.58214
   C       20.97681         2.21446        20.96356
   C       22.09285         1.40485        21.07451
  Ge       21.96329        -0.03150        19.73381
   C       21.78631        -1.84960        20.50998
   C       23.35738         0.06433        18.32403
   C       22.95974         1.84767        22.08812
   C       22.50333         2.96261        22.72164
   S       20.99332         3.51312        22.09965
   H       -1.22666       -10.88988        -3.00343
   H        0.63576       -12.56833        -2.24133
   H        4.52335       -12.75339        -1.51947
   H        5.51117       -11.84727        -0.37470
   H        4.77400       -11.02194        -1.74873
   H        1.80624       -12.56338         2.05042
   H        3.54052       -12.87233         2.14706
   H        2.54670       -13.77936         1.00825
   H        4.54155        -9.08403         2.22681
   H        2.18312        -4.86110         2.19649
   H        4.91826        -1.35013         2.46146
   H        4.15144        -0.15892         3.51340
   H        3.18580        -1.04285         2.33244
   H        1.88928        -2.97850         6.17497
   H        1.16886        -2.12513         4.80893
   H        2.14192        -1.24238         5.98441
   H        5.97615        -1.41879         6.76961
   H        9.41620        -4.71127         7.60888
   H       13.22763        -2.45298        11.96038
   H       11.34626         1.69799        13.58047
   H       14.26856         4.88440        14.57012
   H       13.76067         5.62301        16.08992
   H       12.55901         5.20308        14.87024
   H       11.81699         2.03153        17.95717
   H       10.93080         3.31148        17.12663
   H       12.13297         3.72246        18.34899
   H       16.05723         3.32706        18.30205
   H       19.20662        -0.26879        17.56279
   H       21.01430        -1.86184        21.27266
   H       22.72480        -2.16005        20.95863
   H       21.52157        -2.56192        19.73475
   H       23.42407         1.07204        17.92652
   H       23.11565        -0.61498        17.51254
   H       24.32422        -0.21428        18.73154
   H       23.88564         1.36037        22.34024
   H       22.96020         3.50633        23.52534
*
