# ORCA input file
# SCF done       -256.023732364669          0.000489101258
! CAM-B3LYP def2-SVP def2/J RIJCOSX Grid4 TightSCF
%maxcore 5000
%tddft
    Mode sTDDFT
    Ethresh 5.0
    maxcore 5000
end

%pal
  nprocs 6
  end
* xyz 0 1
   C        1.37841         4.89903        -0.52301
   C        0.06277         5.15574        -0.25357
   F       -0.73044         5.63896        -1.22615
   C       -0.50324         4.93402         1.00946
   C        0.28662         4.44281         2.01129
   C        1.65013         4.16068         1.78898
   C        2.20751         4.39539         0.49791
   C        3.57547         4.13084         0.25308
   C        4.35613         3.64743         1.26754
   C        3.78849         3.39388         2.54954
   C        2.47337         3.64602         2.81515
   C        4.82264         2.83169         3.43552
   O        4.72874         2.54014         4.60578
   C        6.01981         2.63539         2.56734
   C        5.78008         3.32199         1.31682
   C        6.72350         3.82080         0.45575
   C        8.11174         3.69791         0.65345
   N        9.25030         3.64056         0.79233
   C        6.41657         4.60360        -0.67723
   N        6.22353         5.24771        -1.60695
   C        7.02731         1.84198         3.02847
   C        8.06135         1.20210         2.31441
   C        8.15585         0.92260         0.95780
   C        9.32580         0.24582         0.64075
   C       10.13888        -0.00127         1.76573
   S        9.44675         0.57733         3.20588
   C       11.31167        -0.66623         1.33157
   C       11.24393        -0.83894        -0.06241
   C        9.99746        -0.26305        -0.54309
   C        9.55627        -0.18340        -1.83123
   C       10.29635        -0.70846        -2.91113
   N       10.89991        -1.14435        -3.78300
   C        8.32579         0.42923        -2.14981
   N        7.32002         0.92414        -2.39118
   C       12.36312        -1.48813        -0.58393
   C       13.27793        -1.80914         0.40302
   S       12.75004        -1.29966         1.99508
   C       14.52592        -2.47765         0.25922
   C       15.08414        -2.99828        -0.87641
   C       16.33732        -3.61753        -0.65697
   C       17.17482        -4.24546        -1.60474
   C       16.86549        -4.20775        -3.01821
   C       16.37936        -3.15485        -3.74155
   C       16.20735        -3.46499        -5.10732
   C       16.54999        -4.74408        -5.44187
   S       17.10901        -5.59579        -4.04372
   C       16.48336        -5.40727        -6.76761
  Cl       15.61770        -2.31390        -6.24417
   C       18.30631        -4.88107        -1.10508
   C       18.67077        -4.85355         0.26440
   C       17.88160        -4.14959         1.19778
   C       16.71161        -3.58273         0.71025
   S       15.53678        -2.72866         1.66652
   C       18.29636        -4.02202         2.57885
   C       19.55707        -3.79106         3.05210
   C       19.60439        -3.71352         4.46040
   C       18.39849        -3.88683         5.07589
   S       17.15998        -4.14406         3.89408
   C       18.08218        -3.87045         6.52578
  Cl       21.07263        -3.42274         5.31342
   C       19.83739        -5.60873         0.51574
   C       20.38026        -6.16796        -0.60769
   S       19.46314        -5.78171        -2.04834
   C       21.53453        -6.99324        -0.67999
   C       22.09626        -7.57258        -1.80230
   C       23.22079        -8.33550        -1.48619
   C       23.51120        -8.33284        -0.11164
   S       22.40824        -7.39130         0.78921
   C       24.64723        -9.14481         0.11341
   C       25.08942        -9.65681        -1.12262
   C       24.20681        -9.16340        -2.16772
   C       24.28256        -9.41976        -3.50436
   C       25.29796       -10.22881        -4.05840
   N       26.12742       -10.87532        -4.51442
   C       23.35620        -8.88431        -4.42486
   N       22.60767        -8.44983        -5.17665
   C       26.21017       -10.47120        -0.99484
   C       26.60275       -10.62414         0.32617
   S       25.59174        -9.67934         1.42097
   C       27.71950       -11.35863         0.78779
   C       27.98314       -11.81025         2.04420
   C       29.38754       -12.11183         2.44323
   O       30.33689       -12.24086         1.70633
   C       29.36659       -12.14460         3.91895
   C       30.41064       -12.25109         4.79209
   C       30.15286       -12.22762         6.18128
   C       28.81075       -12.08807         6.64180
   C       28.56293       -12.05495         8.02776
   C       29.61074       -12.16086         8.89953
   C       30.93660       -12.30169         8.46714
   C       31.19514       -12.33415         7.12507
   F       29.37605       -12.12937        10.22337
   C       27.74714       -11.98935         5.71492
   C       28.02176       -12.02376         4.37512
   C       27.14334       -11.98027         3.21074
   C       25.81790       -12.32961         3.20772
   C       25.08006       -12.55019         2.02672
   N       24.46246       -12.76984         1.08409
   C       25.07297       -12.58782         4.37565
   N       24.41913       -12.78949         5.29727
   H        1.78126         5.08495        -1.50630
   H       -1.54757         5.15515         1.16286
   H       -0.12657         4.26331         2.99243
   H        3.96883         4.30639        -0.73561
   H        2.06541         3.45434         3.79625
   H        6.97876         1.62541         4.09185
   H        7.38029         1.16578         0.25467
   H       12.51205        -1.71670        -1.62287
   H       14.59944        -2.97112        -1.83407
   H       16.19605        -2.17750        -3.33495
   H       15.65318        -6.11341        -6.80199
   H       17.40082        -5.95788        -6.96670
   H       16.33604        -4.66084        -7.54427
   H       20.41577        -3.63261         2.42637
   H       18.99405        -3.72195         7.09860
   H       17.62145        -4.80974         6.82920
   H       17.38457        -3.06572         6.75601
   H       20.24685        -5.76443         1.49740
   H       21.68909        -7.43676        -2.78810
   H       26.71150       -10.96789        -1.80589
   H       28.51000       -11.51543         0.05984
   H       31.42221       -12.35141         4.42831
   H       27.55411       -11.95199         8.39590
   H       31.72237       -12.38102         9.20151
   H       32.20839       -12.44172         6.76838
   H       26.74105       -11.87675         6.08734
*
