# ORCA input file
# SCF done       -224.919796945642          0.000947568437
! CAM-B3LYP def2-SVP def2/J RIJCOSX Grid4 TightSCF
%maxcore 5000
%tddft
    Mode sTDDFT
    Ethresh 5.0
    maxcore 5000
end

%pal
  nprocs 6
  end
* xyz 0 1
   C        0.14723         2.81183         2.01985
   C       -0.86609         3.72988         2.02074
   F       -1.74708         3.74262         3.03638
   C       -1.02857         4.67155         0.99516
   C       -0.14145         4.67650        -0.04492
   C        0.92376         3.75397        -0.09520
   C        1.06880         2.80063         0.95505
   C        2.12208         1.85675         0.92082
   C        3.00181         1.87304        -0.12702
   C        2.86797         2.84562        -1.15974
   C        1.85441         3.76025        -1.15782
   C        3.97135         2.68644        -2.12218
   O        4.16376         3.29377        -3.15003
   C        4.86014         1.64217        -1.53155
   C        4.14550         1.01819        -0.43907
   C        4.32506        -0.25138         0.04625
   C        5.29385        -1.14819        -0.44224
   N        6.05977        -1.91212        -0.82767
   C        3.49553        -0.84155         1.02344
   N        2.84782        -1.36889         1.80989
   C        6.12381         1.52289        -2.02602
   C        7.25981         0.90938        -1.45804
   C        7.50032         0.53065        -0.14414
   C        8.76097        -0.02771         0.01933
   C        9.50351        -0.06607        -1.17878
   S        8.65142         0.59574        -2.49193
   C       10.75561        -0.66863        -0.90765
   C       10.80342        -1.02443         0.45215
   C        9.54769        -0.63688         1.07799
   C        9.16839        -0.82393         2.37434
   C       10.01450        -1.43773         3.32162
   N       10.71034        -1.92768         4.08968
   C        7.90288        -0.40368         2.83658
   N        6.87360        -0.04967         3.19684
   C       12.00692        -1.62908         0.81262
   C       12.87701        -1.72413        -0.25955
   S       12.19181        -1.06801        -1.73866
   C       14.19408        -2.24823        -0.27669
   C       15.08358        -2.21589        -1.33593
   C       16.30655        -2.79515        -1.00682
   C       16.34643        -3.28446         0.31109
   S       14.87883        -3.02034         1.14605
   C       17.63230        -3.83457         0.54809
   C       18.40567        -3.68020        -0.61667
   C       17.59731        -3.02815        -1.63376
   C       17.97264        -2.69634        -2.90171
   C       19.26805        -2.96487        -3.39296
   N       20.32131        -3.18106        -3.79039
   C       17.09129        -2.05733        -3.79972
   N       16.37412        -1.53482        -4.52560
   C       19.70235        -4.16913        -0.47824
   C       19.92226        -4.70336         0.77886
   S       18.49903        -4.59990         1.80593
   C       21.13058        -5.26162         1.26603
   C       21.35077        -5.89915         2.47526
   C       22.67836        -6.29927         2.61663
   C       23.47382        -5.95389         1.50988
   S       22.58649        -5.15534         0.28886
   C       24.79978        -6.37985         1.75417
   C       24.84846        -7.00300         3.01837
   C       23.51533        -6.97774         3.59743
   C       23.12614        -7.47760         4.80456
   C       24.03088        -8.10972         5.68449
   N       24.76309        -8.61540         6.40686
   C       21.79228        -7.38556         5.25650
   N       20.70527        -7.30690         5.61224
   C       26.12756        -7.43105         3.35456
   C       27.05425        -7.16801         2.35453
   S       26.31552        -6.33384         0.98728
   C       28.44412        -7.40392         2.44433
   C       29.40460        -7.34205         1.48201
   C       30.82233        -7.11061         1.88465
   O       31.28732        -7.23164         2.99359
   C       31.49370        -6.63612         0.65933
   C       32.76034        -6.15043         0.50610
   C       33.17992        -5.71011        -0.76922
   C       32.27213        -5.77759        -1.86670
   C       32.69361        -5.32343        -3.13137
   C       33.96122        -4.83309        -3.28029
   C       34.86971        -4.76241        -2.21518
   C       34.47653        -5.19753        -0.98028
   F       34.36496        -4.39797        -4.48677
   C       30.96947        -6.29710        -1.68204
   C       30.58997        -6.72487        -0.43929
   C       29.34681        -7.32378         0.03653
   C       28.44469        -8.00014        -0.74248
   C       27.42094        -8.80604        -0.20405
   N       26.60223        -9.49550         0.21103
   C       28.50199        -8.03925        -2.15003
   N       28.50046        -8.08392        -3.29677
   H        0.23930         2.09891         2.82418
   H       -1.84786         5.37072         1.04941
   H       -0.24526         5.39259        -0.84616
   H        2.21458         1.15270         1.73256
   H        1.76537         4.48197        -1.95587
   H        6.28526         2.03553        -2.97020
   H        6.80066         0.70236         0.65311
   H       12.25528        -1.97949         1.79851
   H       14.83987        -1.78048        -2.28835
   H       20.45848        -4.14741        -1.24240
   H       20.57248        -6.05720         3.20019
   H       26.39379        -7.92931         4.26933
   H       28.81608        -7.56327         3.45255
   H       33.43438        -6.10016         1.34801
   H       32.02233        -5.36692        -3.97475
   H       35.85701        -4.36657        -2.39285
   H       35.15846        -5.15259        -0.14456
   H       30.29831        -6.33168        -2.52587
*
