# ORCA input file
# SCF done       -209.973066203976          0.000392611755
! CAM-B3LYP def2-SVP def2/J RIJCOSX Grid4 TightSCF
%maxcore 5000
%tddft
    Mode sTDDFT
    Ethresh 5.0
    maxcore 5000
end

%pal
  nprocs 6
  end
* xyz 0 1
   C       -2.25937         2.90508         3.46619
   C       -1.62611         3.65934         2.48977
   C       -1.72632         3.32454         1.14617
   C       -2.47433         2.23080         0.73761
   C       -3.11676         1.47412         1.70378
   C       -3.00379         1.80304         3.07419
   C       -3.74609         0.82530         3.85732
   C       -3.99477         0.89010         5.20025
   C       -3.55532         1.94209         6.03427
   N       -3.23182         2.76332         6.76705
   C       -4.75313        -0.04414         5.93886
   N       -5.35788        -0.76330         6.59817
   C       -4.16859        -0.22297         2.92747
   C       -3.98044         0.31163         1.57881
   C       -4.68983        -0.02593         0.45961
   C       -5.71266        -0.99622         0.42339
   N       -6.57667        -1.74758         0.34210
   C       -4.55129         0.62740        -0.78513
   N       -4.48707         1.12038        -1.81853
   C       -4.54761        -1.47642         3.30745
   C       -4.60803        -2.63904         2.50033
   C       -3.92065        -2.92360         1.32731
   C       -4.23329        -4.18156         0.83242
   C       -5.15889        -4.87174         1.64417
   S       -5.61994        -3.97831         3.01622
   C       -5.43291        -6.11827         1.03722
   C       -4.68644        -6.22232        -0.15891
   C       -3.91500        -4.99960        -0.32658
   C       -3.09786        -4.65562        -1.36181
   C       -2.84806        -5.51014        -2.45764
   N       -2.62966        -6.19606        -3.34887
   C       -2.45168        -3.40071        -1.39085
   N       -1.94033        -2.37443        -1.39292
   C       -4.90896        -7.41690        -0.82637
   C       -5.81686        -8.23535        -0.15602
   S       -6.39417        -7.48734         1.32569
   C       -6.22372        -9.50426        -0.63562
   N       -5.71932        -9.93535        -1.78827
   C       -6.27993       -11.13470        -2.01609
   C       -7.20847       -11.50489        -0.93964
   C       -7.81483       -12.81907        -1.20840
   O       -8.62121       -13.42827        -0.53676
   C       -7.19933       -13.20145        -2.48976
   C       -6.26848       -12.14711        -2.94793
   N       -5.69754       -12.49222        -4.12510
   C       -6.20302       -13.66586        -4.42100
   C       -7.14705       -14.16782        -3.44247
   C       -7.18178       -10.46977        -0.03659
   C       -7.87497       -10.30635         1.18966
   C       -8.77534       -11.19121         1.68645
   C       -9.45020       -10.98383         2.91672
   C       -9.31003        -9.92684         3.80744
   C      -10.14182       -10.05849         4.91120
   C      -10.93334       -11.22488         4.87029
   S      -10.63820       -12.15192         3.46833
   C      -11.74589       -11.25385         6.03036
   C      -11.45687       -10.10905         6.80603
   C      -10.45196        -9.31655         6.12131
   C       -9.94408        -8.11124         6.51127
   C      -10.36801        -7.49304         7.70673
   N      -10.72833        -7.01448         8.68444
   C       -8.98000        -7.42363         5.74509
   N       -8.19186        -6.87744         5.11565
   C      -12.22110       -10.02863         7.96006
   C      -13.10969       -11.08958         8.07670
   S      -12.94718       -12.22538         6.73966
   C      -14.03200       -11.38177         9.10518
   C      -14.53988       -10.52755        10.04302
   C      -15.14224       -10.96434        11.30116
   C      -15.65254       -12.20000        11.59227
   C      -15.72665       -13.28665        10.69473
   N      -15.82374       -14.20759        10.01585
   C      -16.22874       -12.54211        12.83507
   N      -16.71018       -12.88608        13.81820
   C      -15.10983        -9.81828        12.19975
   C      -14.68863        -8.68103        11.47394
   C      -14.53892        -7.45511        12.10039
   C      -14.81985        -7.36884        13.45572
   C      -15.24745        -8.48058        14.16832
   C      -15.39634        -9.71418        13.55196
   C      -14.49230        -9.06824        10.08586
   C      -14.54223        -8.21509         9.01741
   C      -14.64249        -6.81162         9.13668
   N      -14.73168        -5.66859         9.16848
   C      -14.59781        -8.62759         7.67051
   N      -14.67691        -8.90980         6.56052
   H       -2.16175         3.17505         4.50472
   H       -1.04110         4.51720         2.78373
   H       -1.21414         3.92105         0.40715
   H       -2.53601         1.97155        -0.30677
   H       -4.78382        -1.63666         4.35097
   H       -3.20434        -2.25342         0.88782
   H       -4.46444        -7.72826        -1.75426
   H       -5.90960       -14.17072        -5.32490
   H       -7.66730       -15.10333        -3.49986
   H       -7.66326        -9.41277         1.75480
   H       -9.00638       -12.09427         1.13665
   H       -8.63387        -9.10637         3.65566
   H      -12.11542        -9.26335         8.70737
   H      -14.31015       -12.42477         9.17843
   H      -14.19534        -6.58925        11.55806
   H      -14.70059        -6.42317        13.96163
   H      -15.46243        -8.38884        15.22192
   H      -15.71985       -10.56813        14.12395
*
