# ORCA input file
# SCF done       -176.593747040651          0.000406171137
! CAM-B3LYP def2-SVP def2/J RIJCOSX Grid4 TightSCF
%maxcore 5000
%tddft
    Mode sTDDFT
    Ethresh 5.0
    maxcore 5000
end

%pal
  nprocs 6
  end
* xyz 0 1
   C        5.23683         3.82198         4.29465
   C        3.98501         3.32396         3.92330
   C        4.21812         2.02288         3.39476
   C        5.62942         1.85959         3.45557
   N        6.21118         2.94422         4.01493
   O        6.31230         0.83536         3.00244
   C        7.71933         0.89864         3.16375
   C        2.96132         1.54030         2.96601
   N        1.99986         2.47860         3.18919
   C        2.58335         3.53259         3.76377
   O        1.92690         4.61366         4.12500
   C        0.53263         4.60862         3.85980
   C        2.68330         0.27192         2.39796
   C        3.38893        -0.93377         2.62058
   C        2.74313        -1.91674         1.83221
   C        1.67947        -1.22842         1.18083
   N        1.65098         0.05433         1.53295
   O        0.82372        -1.78409         0.34267
   C       -0.18323        -0.92510        -0.16792
   C        3.36996        -3.14501         2.12768
   N        4.35123        -2.95673         3.06033
   C        4.36652        -1.65874         3.37154
   O        5.16477        -1.14907         4.28047
   C        6.05961        -2.05584         4.90288
   C        3.07708        -4.42341         1.61700
   C        3.63455        -5.63012         2.02272
   C        3.10183        -6.70369         1.32388
   C        2.14162        -6.30982         0.36255
   S        1.88262        -4.62269         0.34604
   C        1.66920        -7.46385        -0.30090
   C        2.31148        -8.59646         0.25223
   C        3.23145        -8.15148         1.28664
   C        4.04179        -8.92857         2.06138
   C        4.07611       -10.33431         1.94441
   N        4.11295       -11.47742         1.86273
   C        4.90350        -8.38314         3.03652
   N        5.60827        -7.95576         3.83362
   C        1.90246        -9.78575        -0.33329
   C        0.96746        -9.57034        -1.33880
   S        0.58455        -7.87085        -1.55466
   C        0.35852       -10.54896        -2.14636
   C       -0.51298       -10.36879        -3.24050
   C       -0.83552       -11.66253        -3.71687
   C       -0.09529       -12.55161        -2.87632
   N        0.59108       -11.88122        -1.94831
   O       -0.04770       -13.85768        -2.99885
   C        0.75736       -14.54316        -2.05420
   C       -1.62959       -11.46799        -4.87132
   N       -1.78138       -10.13383        -5.11247
   C       -1.13896        -9.47200        -4.15342
   O       -1.08640        -8.15513        -4.07193
   C       -1.75106        -7.44761        -5.10643
   C       -2.20660       -12.47284        -5.68752
   C       -2.59339       -13.77164        -5.28770
   C       -3.08621       -14.41723        -6.45676
   C       -2.96306       -13.43977        -7.48780
   N       -2.45508       -12.29947        -7.01517
   O       -3.30103       -13.61295        -8.74711
   C       -3.10325       -12.49631        -9.60049
   C       -3.52186       -15.68059        -6.04792
   N       -3.35659       -15.84760        -4.72772
   C       -2.81702       -14.70767        -4.24082
   O       -2.58677       -14.51332        -2.96413
   C       -2.89896       -15.59181        -2.09859
   H        5.48369         4.76836         4.74032
   H        7.97874         0.95091         4.22262
   H        8.11902         1.78428         2.66599
   H        8.11896        -0.00792         2.71400
   H        0.15947         5.57857         4.18134
   H        0.04544         3.80457         4.41438
   H        0.34952         4.45476         2.79509
   H       -0.81593        -1.54334        -0.80106
   H        0.26743        -0.11522        -0.74429
   H       -0.75907        -0.48851         0.64989
   H        6.61356        -1.47935         5.64058
   H        6.73651        -2.48903         4.16412
   H        5.50743        -2.86615         5.38273
   H        4.38063        -5.67059         2.79462
   H        2.23853       -10.77528        -0.08437
   H        0.70865       -15.59692        -2.31993
   H        0.37796       -14.38203        -1.04343
   H        1.78663       -14.18201        -2.09863
   H       -1.57103        -6.39196        -4.91515
   H       -2.82005        -7.66712        -5.08799
   H       -1.35488        -7.73994        -6.08037
   H       -3.45841       -12.79927       -10.58310
   H       -2.04503       -12.23139        -9.63721
   H       -3.66308       -11.63450        -9.23342
   H       -3.95131       -16.47141        -6.63560
   H       -2.29706       -16.46706        -2.34939
   H       -3.95333       -15.85951        -2.19062
   H       -2.67647       -15.24801        -1.09055
*
