# ORCA input file
# SCF done       -213.657895923092          0.000622776377
! CAM-B3LYP def2-SVP def2/J RIJCOSX Grid4 TightSCF
%maxcore 5000
%tddft
    Mode sTDDFT
    Ethresh 5.0
    maxcore 5000
end

%pal
  nprocs 6
  end
* xyz 0 1
   C       -0.24842        -4.59284        -2.70592
   C       -0.13252        -3.24906        -2.69324
   C        1.14369        -2.80573        -2.23969
   C        1.60548        -1.48644        -2.08743
   C        0.77738        -0.32226        -2.33548
   C        1.15437         0.85971        -2.90654
   C        0.11332         1.81254        -2.92864
   C       -1.05740         1.38494        -2.37348
   S       -0.88364        -0.24391        -1.81358
   C       -2.33975         2.11739        -2.22403
  Cl        0.32596         3.38394        -3.60071
   C        2.92414        -1.33532        -1.66394
   C        3.77417        -2.42803        -1.36520
   C        3.29541        -3.74984        -1.47148
   C        1.99294        -3.89911        -1.93594
   S        1.17369        -5.41727        -2.17759
   C        4.12052        -4.87384        -1.08063
   C        4.93099        -4.97125         0.01513
   C        5.58887        -6.21701         0.09621
   C        5.30078        -7.07391        -0.92694
   S        4.17792        -6.33934        -2.01993
   C        5.81315        -8.44704        -1.16112
  Cl        6.66128        -6.60600         1.38643
   C        5.06850        -1.99690        -0.98997
   C        5.19644        -0.63634        -0.95453
   S        3.72745         0.18769        -1.40554
   C        6.38713         0.06801        -0.59899
   C        6.67247         1.40127        -0.34626
   C        5.79107         2.58287        -0.33657
   O        5.78044         3.40910         0.53386
   O        4.99848         2.62850        -1.41145
   C        8.05023         1.37375         0.01701
   N        8.51736         0.14813        -0.03301
   O        7.50559        -0.65320        -0.39551
   C        8.90152         2.48500         0.35456
   C       10.17623         2.50086         0.88044
   C       11.05210         1.34702         1.20743
   O       12.10436         1.14121         0.67405
   O       10.51778         0.58065         2.15149
   C       10.48213         3.88856         0.94157
   N        9.46327         4.59108         0.49317
   O        8.50022         3.73835         0.12165
   C       11.68182         4.49448         1.45885
   C       12.20493         5.77527         1.41886
   C       11.77769         7.00308         0.69610
   O       12.56280         7.88687         0.47001
   O       10.51550         7.09183         0.30063
   C       13.43035         5.64010         2.15733
   N       13.56839         4.40049         2.57329
   O       12.51044         3.69577         2.14698
   C       14.42867         6.61930         2.49924
   C       15.73149         6.33172         2.77618
   C       16.48572         7.46936         3.15727
   C       17.85817         7.54111         3.46488
   C       18.71825         6.38537         3.30912
   C       18.72742         5.48495         2.28284
   C       19.70722         4.48210         2.44811
   C       20.44443         4.59566         3.59037
   S       19.93127         5.98198         4.49201
   C       21.54245         3.72460         4.08067
  Cl       19.94106         3.22743         1.29106
   C       18.33432         8.77626         3.89088
   C       17.52548         9.93605         3.97055
   C       16.16661         9.87565         3.61844
   C       15.67603         8.62913         3.22984
   S       14.04599         8.30160         2.72019
   C       15.29557        11.03447         3.63926
   C       13.99178        11.08983         4.03989
   C       13.42386        12.37167         3.87677
   C       14.26787        13.30169         3.34480
   S       15.81454        12.58695         3.04036
   C       14.00127        14.72758         3.02737
  Cl       11.79824        12.71918         4.32294
   C       18.27046        11.05885         4.43912
   C       19.56652        10.77109         4.67163
   S       19.97975         9.12440         4.34847
   H       -1.09753        -5.17580        -3.00459
   H       -0.91806        -2.58551        -3.00245
   H        2.12196         1.04384        -3.33430
   H       -2.23969         3.11772        -2.63773
   H       -2.61782         2.19517        -1.17344
   H       -3.14293         1.59755        -2.74529
   H        5.02380        -4.20839         0.76576
   H        6.34559        -8.50177        -2.11008
   H        4.99142        -9.16135        -1.19672
   H        6.49136        -8.72709        -0.35905
   H        5.88594        -2.65853        -0.77106
   H        4.41531         3.40421        -1.37381
   H       11.08426        -0.18871         2.32529
   H        9.96664         6.29189         0.44779
   H       16.12244         5.33337         2.72002
   H       18.09278         5.55232         1.41885
   H       21.28527         3.28916         5.04570
   H       22.45950         4.29920         4.20588
   H       21.72060         2.92359         3.36756
   H       13.45749        10.26290         4.46831
   H       13.92301        14.87174         1.94937
   H       14.80785        15.36031         3.39361
   H       13.06569        15.03586         3.48786
   H       17.84391        12.03123         4.59947
   H       20.33323        11.43112         5.02738
*
