# ORCA input file
# SCF done       -183.281063661051          0.000788061262
! CAM-B3LYP def2-SVP def2/J RIJCOSX Grid4 TightSCF
%maxcore 5000
%tddft
    Mode sTDDFT
    Ethresh 5.0
    maxcore 5000
end

%pal
  nprocs 6
  end
* xyz 0 1
   C       -4.68808         3.61327         4.06704
   C       -5.66718         4.36077         3.46679
   C       -6.60103         5.14110         4.17644
   N       -7.36879         5.80660         4.71073
   C       -5.90229         4.34508         2.07642
   N       -6.14661         4.31448         0.95512
   C       -4.58600         3.34371         5.49607
   C       -3.84324         2.13936         5.67478
   C       -3.62565         1.61143         6.91467
   C       -4.13698         2.28190         8.04906
   C       -4.86328         3.49583         7.87679
   C       -5.08257         4.01490         6.58001
   C       -5.35924         4.15835         9.01782
   C       -5.15258         3.64664        10.26988
   C       -4.43962         2.45036        10.43867
   C       -3.94323         1.78256         9.35216
   C       -3.39028         1.64448         4.36135
   O       -2.78755         0.62609         4.11132
   C       -3.77615         2.71140         3.39371
   C       -3.19551         2.75642         2.16626
   C       -3.08525         3.85513         1.27797
   C       -2.83226         3.78103        -0.07816
   C       -2.75781         5.03933        -0.66881
   C       -2.90293         6.09651         0.24091
   S       -3.15809         5.52259         1.84085
   C       -2.82599         7.34405        -0.38011
   C       -2.63447         7.23849        -1.76317
   S       -2.52775         5.58942        -2.30495
   C       -2.58675         8.47115        -2.41802
   C       -2.73586         9.52336        -1.54222
   S       -2.93323         8.99144         0.11905
   C       -2.77440        10.91047        -1.84735
   C       -2.87014        11.96063        -0.96247
   C       -2.92381        13.19175        -1.61945
   C       -2.87465        13.08891        -3.01394
   S       -2.74234        11.44546        -3.51995
   C       -2.96685        14.33581        -3.64032
   C       -3.07921        15.38407        -2.72031
   S       -3.06591        14.83642        -1.06823
   C       -3.20571        16.64200        -3.31329
   C       -3.19763        16.56457        -4.68780
   S       -3.01537        14.91488        -5.26382
   C       -3.35117        17.62909        -5.61585
   C       -3.42247        17.54330        -6.98890
   C       -3.62407        18.79254        -7.57895
   C       -3.70143        19.84395        -6.65675
   S       -3.52080        19.27684        -5.03674
   C       -3.92476        21.07682        -7.27243
   C       -4.02657        20.95984        -8.67078
   S       -3.82557        19.31862        -9.22442
   C       -4.27447        22.15917        -9.32445
   C       -4.36723        23.22208        -8.44080
   S       -4.11991        22.70390        -6.76601
   C       -4.59244        24.60091        -8.62582
   C       -4.97480        25.31452        -9.72833
   C       -5.15228        26.75901        -9.72051
   C       -4.66446        27.64273        -8.79304
   C       -4.85916        29.03861        -8.85790
   N       -4.98702        30.17958        -8.84474
   C       -3.86588        27.31344        -7.67729
   N       -3.19041        27.14040        -6.76431
   C       -5.87792        27.12761       -10.92959
   C       -6.03834        25.96127       -11.72843
   C       -5.43319        24.80530       -11.04431
   O       -5.35510        23.67944       -11.49221
   C       -6.67769        25.99314       -12.93397
   C       -7.20329        27.21827       -13.40188
   C       -7.05351        28.38963       -12.60486
   C       -6.38216        28.32543       -11.36218
   C       -7.58515        29.60604       -13.07922
   C       -8.23279        29.66496       -14.28311
   C       -8.37990        28.51091       -15.06697
   C       -7.87595        27.31376       -14.63586
   H       -3.06990         0.69280         7.03064
   H       -5.62871         4.93954         6.47448
   H       -5.91073         5.07712         8.88213
   H       -5.53830         4.16072        11.13750
   H       -4.28541         2.06075        11.43381
   H       -3.39341         0.86106         9.47629
   H       -2.68397         1.84985         1.85675
   H       -2.74993         2.85079        -0.60931
   H       -2.45524         8.59841        -3.47685
   H       -2.90405        11.83283         0.10394
   H       -3.30926        17.56589        -2.77433
   H       -3.34099        16.61691        -7.52721
   H       -4.39442        22.26880       -10.38622
   H       -4.46879        25.17065        -7.71143
   H       -6.78381        25.09362       -13.52215
   H       -6.29145        29.22841       -10.77983
   H       -7.46869        30.49185       -12.47218
   H       -8.63586        30.60164       -14.63804
   H       -8.89450        28.57523       -16.01406
   H       -7.98598        26.42190       -15.23539
*
