# ORCA input file
# SCF done       -226.600791051971          0.000698949706
! CAM-B3LYP def2-SVP def2/J RIJCOSX Grid4 TightSCF
%maxcore 5000
%tddft
    Mode sTDDFT
    Ethresh 5.0
    maxcore 5000
end

%pal
  nprocs 6
  end
* xyz 0 1
   C        1.24293        -0.58811         2.77834
   C        0.36751        -1.52170         2.33420
   C        0.73475        -2.78409         1.61946
   O        1.61775        -3.53007         1.95820
   O       -0.08062        -2.99533         0.58780
   C        0.12105        -4.18831        -0.15985
   C       -1.00995        -1.38220         2.59517
   N       -2.13344        -1.27945         2.80314
   C        2.64277        -0.55646         2.51335
   C        3.35119        -1.18655         1.52907
   C        4.74210        -0.95668         1.58841
   C        5.73633        -1.48653         0.73797
   C        5.40334        -2.48684        -0.25268
   C        4.50550        -3.51279        -0.13903
   C        4.43763        -4.30155        -1.30700
   C        5.26799        -3.90021        -2.31395
   S        6.17147        -2.51033        -1.81779
   C        5.45456        -4.49313        -3.66156
  Cl        3.38401        -5.65998        -1.43633
   C        7.02942        -1.02130         0.94121
   C        7.37390        -0.10169         1.96524
   C        6.38402         0.39918         2.83513
   C        5.08711        -0.05849         2.62888
   S        3.68123         0.42526         3.53173
   C        6.70983         1.35656         3.87316
   C        7.52406         2.44913         3.78483
   C        7.60756         3.16379         4.99931
   C        6.87505         2.63073         6.01984
   S        6.04369         1.21319         5.47660
   C        6.72766         3.12081         7.41339
  Cl        8.56241         4.58853         5.16362
   C        8.76520         0.15568         1.99350
   C        9.46528        -0.51179         1.02913
   S        8.43174        -1.51673         0.03473
   C       10.86038        -0.45490         0.76079
   C       11.55277        -1.14222        -0.21476
   C       12.91233        -0.82333        -0.21343
   C       13.25178         0.11511         0.77337
   S       11.90367         0.60204         1.70058
   C       14.64336         0.38508         0.68322
   C       15.17969        -0.38390        -0.36187
   C       14.11223        -1.17376        -0.95635
   C       14.21618        -2.05616        -1.99096
   C       13.10421        -2.76874        -2.48739
   N       12.20460        -3.34850        -2.89881
   C       15.44653        -2.31650        -2.63053
   N       16.44701        -2.52888        -3.14887
   C       16.54733        -0.17392        -0.54492
   C       17.05253         0.74674         0.35328
   S       15.82063         1.35875         1.44265
   C       18.39220         1.21855         0.44976
   C       19.45307         0.88562        -0.34649
   C       20.65293         1.54984         0.00094
   C       21.92194         1.40641        -0.59731
   C       22.10913         0.57964        -1.77226
   C       21.30831         0.49481        -2.87523
   C       21.80394        -0.40876        -3.84009
   C       22.97062        -1.02389        -3.48871
   S       23.48878        -0.47238        -1.93174
   C       23.76235        -2.02204        -4.25011
  Cl       20.99033        -0.69628        -5.33057
   C       22.96636         2.11604        -0.01419
   C       22.78876         2.97512         1.09950
   C       21.52248         3.10668         1.71122
   C       20.48176         2.39895         1.12480
   S       18.83447         2.37405         1.68818
   C       21.36132         3.91039         2.90317
   C       22.23444         4.04792         3.94679
   C       21.75551         4.93040         4.93815
   C       20.52885         5.46947         4.67643
   S       19.93032         4.87266         3.16584
   C       19.73809         6.42637         5.49024
  Cl       22.66474         5.29267         6.35589
   C       23.98093         3.64232         1.44822
   C       25.06102         3.28063         0.69217
   S       24.61672         2.13170        -0.56084
   C       26.41579         3.70849         0.77494
   C       27.03819         4.29081         1.83249
   C       26.49000         4.45752         3.20775
   O       25.68464         3.73035         3.73431
   O       27.05136         5.50428         3.81594
   C       26.65308         5.73442         5.15995
   C       28.37436         4.72078         1.68247
   N       29.45982         5.06756         1.55256
   H        0.85698         0.21833         3.39081
   H       -0.83059        -4.42376        -0.62950
   H        0.44008        -4.99797         0.49882
   H        0.88595        -4.02368        -0.92170
   H        2.88973        -1.75717         0.74733
   H        3.94214        -3.73395         0.74990
   H        6.48746        -4.81171        -3.79802
   H        5.22501        -3.76382        -4.43770
   H        4.80009        -5.35320        -3.77883
   H        8.01204         2.76642         2.88190
   H        7.50804         3.84522         7.63392
   H        6.79326         2.29516         8.11925
   H        5.75850         3.60223         7.54831
   H        9.23964         0.79408         2.71631
   H       11.07488        -1.83282        -0.88614
   H       17.14818        -0.66133        -1.28976
   H       19.38668         0.16836        -1.14228
   H       20.42265         1.08449        -3.02396
   H       23.24265        -2.27724        -5.17012
   H       23.90822        -2.92664        -3.66126
   H       24.74517        -1.62208        -4.49851
   H       23.16705         3.52028         4.03602
   H       20.28539         6.67820         6.39516
   H       18.77760         5.99203         5.76563
   H       19.54342         7.33915         4.92808
   H       24.02489         4.39931         2.20520
   H       27.01049         3.54187        -0.11660
   H       27.18289         6.62602         5.48322
   H       26.92070         4.88011         5.78492
   H       25.57289         5.88638         5.21638
*
