# ORCA input file
# SCF done       -194.366215257495          0.000781775266
! CAM-B3LYP def2-SVP def2/J RIJCOSX Grid4 TightSCF
%maxcore 5000
%tddft
    Mode sTDDFT
    Ethresh 5.0
    maxcore 5000
end

%pal
  nprocs 6
  end
* xyz 0 1
   C       -3.03432        -1.39672        -1.45827
   C       -2.29726        -1.75020        -0.35776
   C       -1.26509        -2.71284        -0.37200
   N       -0.41499        -3.48164        -0.30819
   C       -2.43868        -1.22450         0.94369
   N       -2.47936        -0.85743         2.03167
   C       -2.86293        -1.94974        -2.79649
   C       -3.79767        -1.33589        -3.66762
   C       -3.88588        -1.64709        -5.00309
   C       -3.00947        -2.61237        -5.50673
   C       -2.07794        -3.22106        -4.63109
   C       -1.98877        -2.90537        -3.28053
   S       -1.09716        -4.38309        -5.46719
   C       -1.92482        -4.05184        -6.94922
   C       -2.89179        -3.11555        -6.83275
   C       -4.60328        -0.36542        -2.91153
   O       -5.49439         0.33069        -3.35752
   C       -4.11013        -0.41844        -1.52145
   C       -4.57773         0.31647        -0.47047
   C       -5.59582         1.29419        -0.40745
   C       -5.90469         1.93945         0.77668
   C       -6.92750         2.89404         0.65794
   C       -7.41304         2.96654        -0.67832
   S       -6.59387         1.85647        -1.73636
   C       -8.41196         3.84400        -1.04378
   C       -8.94292         4.68105        -0.06544
   C       -8.45636         4.60298         1.27189
   C       -7.46815         3.72778         1.64642
   S       -9.26221         5.75654         2.30583
   C      -10.21806         6.34025         0.95426
   C       -9.94028         5.67335        -0.20623
   C      -11.12706         7.41952         1.13002
   C      -11.40984         8.11753         2.28669
   C      -12.31780         9.15577         2.06193
   C      -12.72550         9.24000         0.72236
   S      -12.00577         8.04446        -0.25829
   C      -13.60572        10.34424         0.58354
   C      -13.75487        10.96089         1.83478
   C      -12.96034        10.22753         2.80974
   C      -12.83822        10.49081         4.14163
   C      -12.03534         9.70197         4.99318
   N      -11.38301         9.06525         5.68847
   C      -13.50656        11.56912         4.75995
   N      -14.04525        12.44543         5.26608
   C      -14.57784        12.08965         1.78657
   C      -15.04920        12.33094         0.51230
   S      -14.47858        11.13897        -0.64715
   C      -15.86692        13.40479         0.06365
   C      -16.31657        13.62630        -1.20804
   C      -17.06973        14.81544        -1.34273
   C      -17.18709        15.51315        -0.10817
   S      -16.37238        14.66257         1.17843
   C      -17.85213        16.71102         0.00194
   C      -18.42549        17.24849        -1.15415
   C      -18.31218        16.54765        -2.38697
   C      -17.65093        15.34464        -2.49392
   S      -19.07929        17.41662        -3.67863
   C      -19.57126        18.69447        -2.57849
   C      -19.14388        18.45488        -1.29665
   C      -20.23143        19.82488        -3.12512
   C      -20.94237        20.80685        -2.51320
   C      -21.50069        20.96001        -1.18561
   C      -21.96095        19.95512        -0.37530
   C      -22.58633        20.17388         0.86922
   N      -23.07925        20.30039         1.89805
   C      -21.93849        18.59199        -0.73201
   N      -21.97165        17.47554        -0.99603
   C      -21.72889        22.38536        -0.97485
   C      -21.55316        23.06246        -2.20970
   C      -21.14674        22.09401        -3.24229
   O      -20.96313        22.29044        -4.42102
   C      -21.73467        24.41855        -2.33821
   C      -22.09337        25.14067        -1.19610
   C      -22.25316        24.45730         0.03394
   C      -22.07939        23.08418         0.16375
   S      -22.68413        25.55182         1.30915
   C      -22.65245        26.88573         0.20851
   C      -22.33307        26.53686        -1.05675
   H       -4.60995        -1.15937        -5.63716
   H       -1.26143        -3.39876        -2.65808
   H       -1.63105        -4.58800        -7.83066
   H       -3.50895        -2.78235        -7.64740
   H       -4.10583         0.14894         0.49044
   H       -5.39569         1.72557         1.70062
   H       -8.76965         3.89029        -2.05998
   H       -7.10789         3.68169         2.66171
   H      -10.42885         5.89273        -1.13957
   H      -10.96212         7.87462         3.23361
   H      -14.82419        12.71752         2.62399
   H      -16.10778        12.96183        -2.02818
   H      -17.93357        17.22607         0.94574
   H      -17.57296        14.82764        -3.43680
   H      -19.29205        19.14334        -0.48333
   H      -20.08491        19.97574        -4.19119
   H      -21.60244        24.90646        -3.29136
   H      -22.20526        22.60702         1.12179
   H      -22.87806        27.86490         0.58396
   H      -22.26440        27.23153        -1.87419
*
