# ORCA input file
# SCF done       -273.879496077591          0.000716789702
! CAM-B3LYP def2-SVP def2/J RIJCOSX Grid4 TightSCF
%maxcore 5000
%tddft
    Mode sTDDFT
    Ethresh 5.0
    maxcore 5000
end

%pal
  nprocs 6
  end
* xyz 0 1
   C       11.10122        -1.51036         7.66760
   C       10.68022        -1.50701         8.96832
   F       11.37023        -2.20455         9.88944
   C        9.54598        -0.80008         9.38940
   C        8.83190        -0.08650         8.46730
   C        9.22032        -0.05590         7.11241
   C       10.37850        -0.77985         6.70469
   C       10.79324        -0.75703         5.35207
   C       10.06718        -0.03997         4.44158
   C        8.90003         0.66814         4.85101
   C        8.48387         0.67209         6.15056
   C        8.28421         1.31428         3.67479
   O        7.31098         2.03385         3.64325
   C        9.07708         0.83558         2.51254
   C       10.26965         0.19785         3.01449
   C       11.46980         0.09550         2.35636
   C       11.69075         0.66868         1.08796
   N       11.90997         1.17927         0.08323
   C       12.62286        -0.49068         2.91138
   N       13.57922        -0.98425         3.31182
   C        8.54117         0.93938         1.25836
   C        8.81482         0.20750         0.09456
   S        9.75803        -1.26391         0.04651
   C        9.46162        -1.52560        -1.64342
   C        8.65304        -0.51627        -2.13850
   C        8.27720         0.45600        -1.17623
   C        7.47656         1.47433        -1.73833
   C        7.25808         1.27401        -3.07060
   C        6.48888         2.09620        -4.01002
   O        6.33528         1.82231        -5.17425
   O        5.97906         3.18398        -3.41763
   C        5.22262         4.04283        -4.25991
   S        8.01415        -0.16333        -3.70986
   C       10.03479        -2.61977        -2.33622
   C        9.75113        -3.02558        -3.61356
   C       10.53458        -4.11821        -4.04249
   C       10.47479        -4.78849        -5.28376
   C        9.61152        -4.31388        -6.34362
   C        9.36801        -3.01980        -6.70995
   C        8.46709        -2.91898        -7.79122
   C        8.01321        -4.11910        -8.25881
   S        8.71730        -5.41617        -7.35432
   C        7.06098        -4.38434        -9.36588
  Cl        7.98843        -1.39964        -8.44485
   C       11.30277        -5.89485        -5.42865
   C       12.21375        -6.32164        -4.42872
   C       12.27497        -5.65076        -3.18843
   C       11.42934        -4.55931        -3.03400
   S       11.28500        -3.59240        -1.59213
   C       13.17710        -6.08502        -2.14168
   C       13.49444        -7.36138        -1.77206
   C       14.43405        -7.40480        -0.71993
   C       14.84011        -6.18102        -0.27259
   S       14.04701        -4.93013        -1.16725
   C       15.81144        -5.85569         0.80149
  Cl       15.01410        -8.89154        -0.06965
   C       13.01330        -7.39921        -4.87359
   C       12.71596        -7.81684        -6.14067
   S       11.42971        -6.87772        -6.85987
   C       13.33584        -8.87744        -6.86573
   C       14.38453        -9.65271        -6.45774
   C       14.79408       -10.60718        -7.41618
   C       15.82200       -11.56646        -7.29680
   C       16.64694       -11.70080        -6.11409
   C       17.08569       -12.85990        -5.53561
   C       17.89270       -12.65038        -4.40052
   C       18.08908       -11.33631        -4.10767
   S       17.25981       -10.32034        -5.24138
   C       18.86610       -10.73784        -2.99187
   C       15.99771       -12.41008        -8.38669
   C       15.18434       -12.37808        -9.54828
   C       14.13169       -11.44067        -9.65187
   C       13.99318       -10.55758        -8.58559
   S       12.78420        -9.30810        -8.46556
   C       13.22757       -11.40406       -10.77915
   C       12.65417       -10.31195       -11.37240
   C       11.76177       -10.64315       -12.40900
   C       11.63110       -11.98411       -12.60709
   S       12.63591       -12.87305       -11.51224
   C       10.78108       -12.69699       -13.59508
   C       15.62295       -13.30391       -10.51656
   C       16.70313       -14.05625       -10.12713
   S       17.26295       -13.59452        -8.53074
   C       17.36573       -15.00913       -10.94008
   C       18.30627       -15.92898       -10.59941
   C       19.21437       -16.47442       -11.64623
   O       19.05526       -16.42489       -12.84407
   C       20.36991       -17.01456       -10.90265
   C       21.54628       -17.50977       -11.38649
   C       22.53777       -17.94278       -10.47779
   C       22.29033       -17.85100        -9.07676
   C       23.28853       -18.27486        -8.17801
   C       24.46718       -18.76595        -8.66624
   C       24.72831       -18.86699       -10.03951
   C       23.77085       -18.45927       -10.92604
   F       25.42201       -19.17049        -7.80859
   C       21.05742       -17.34472        -8.60307
   C       20.11082       -16.93728        -9.50291
   C       18.75874       -16.42136        -9.31548
   C       17.97365       -16.62230        -8.21160
   C       16.57711       -16.41608        -8.21489
   N       15.43267       -16.33085        -8.20373
   C       18.45167       -17.14636        -6.99481
   N       18.80183       -17.54043        -5.97499
   H       11.98157        -2.06352         7.37987
   H        9.26157        -0.83434        10.42910
   H        7.95426         0.46599         8.76747
   H       11.66979        -1.31728         5.06682
   H        7.60257         1.22293         6.44319
   H        7.70216         1.62502         1.18173
   H        7.08163         2.31676        -1.20173
   H        4.36667         3.50769        -4.67610
   H        5.84156         4.40800        -5.08194
   H        4.89248         4.86668        -3.63303
   H        8.97815        -2.57531        -4.20704
   H        9.84412        -2.16613        -6.26468
   H        6.15445        -4.85686        -8.98833
   H        7.50568        -5.05308       -10.10153
   H        6.79479        -3.44804        -9.84962
   H       13.04517        -8.24181        -2.19261
   H       16.03680        -6.74951         1.37826
   H       15.40663        -5.09271         1.46387
   H       16.73909        -5.47157         0.37640
   H       13.80127        -7.83122        -4.28740
   H       14.84821        -9.54217        -5.49646
   H       16.80202       -13.83744        -5.88250
   H       18.31170       -13.45306        -3.82049
   H       19.36762       -11.52073        -2.42841
   H       18.20857       -10.18784        -2.31816
   H       19.61254       -10.04023        -3.37045
   H       12.89314        -9.29902       -11.10396
   H       11.23078        -9.90850       -12.98768
   H       10.21965       -11.97970       -14.18858
   H       10.08054       -13.36196       -13.09054
   H       11.39220       -13.30453       -14.26216
   H       15.16231       -13.42948       -11.47928
   H       17.15876       -14.93077       -12.00327
   H       21.72010       -17.56937       -12.45048
   H       23.12065       -18.21509        -7.11403
   H       25.67683       -19.26290       -10.36605
   H       23.94863       -18.52692       -11.98880
   H       20.89512       -17.27971        -7.53856
*
