# ORCA input file
# SCF done       -238.340973302297          0.000797099025
! CAM-B3LYP def2-SVP def2/J RIJCOSX Grid4 TightSCF
%maxcore 5000
%tddft
    Mode sTDDFT
    Ethresh 5.0
    maxcore 5000
end

%pal
  nprocs 6
  end
* xyz 0 1
   C        1.88696        -0.31623        -0.13485
   C        1.76467         1.02496        -0.46432
   C        0.51850         1.62910        -0.56613
   C       -0.64394         0.91221        -0.32915
   C       -0.53446        -0.42785         0.00325
   C        0.73277        -1.04954         0.09359
   C        0.54691        -2.45548         0.41596
   C        1.51490        -3.34746         0.77379
   C        2.88613        -3.02365         0.87521
   N        4.00987        -2.81928         0.97993
   C        1.27156        -4.68827         1.14611
   N        1.13705        -5.78043         1.47118
   C       -0.89167        -2.71896         0.29202
   C       -1.55322        -1.41418         0.30774
   C       -2.82713        -1.16005         0.72979
   C       -3.69531        -2.15129         1.23292
   N       -4.42350        -2.91439         1.68444
   C       -3.39765         0.12952         0.76829
   N       -3.92008         1.15124         0.79151
   C       -1.42116        -3.92965         0.00642
   C       -2.72963        -4.21511        -0.51401
   C       -3.44390        -5.37426        -0.32990
   O       -4.59381        -5.34027        -1.00374
   C       -4.65034        -4.17057        -1.65015
   C       -3.54087        -3.41575        -1.39428
   C       -3.16277        -2.11736        -1.99086
   O       -2.04164        -1.91026        -2.42645
   C       -4.18508        -1.09090        -1.97335
   C       -5.43128        -1.07449        -1.37901
   C       -6.06452         0.16020        -1.48052
   C       -5.30865         1.10480        -2.14769
   S       -3.79308         0.45319        -2.66840
   C       -5.65782         2.45987        -2.40706
   C       -4.94306         3.38626        -3.11093
   C       -5.57648         4.64817        -3.19630
   C       -5.13405         5.80009        -3.87938
   C       -3.91956         5.82516        -4.66860
   C       -3.02322         6.84859        -4.79290
   C       -1.98108         6.55656        -5.69885
   C       -2.07000         5.32718        -6.28528
   S       -3.46827         4.49287        -5.70015
   C       -1.16722         4.70476        -7.28542
  Cl       -0.71078         7.67118        -6.02595
   C       -5.94830         6.92381        -3.78576
   C       -7.17366         6.94545        -3.07228
   C       -7.62717         5.78759        -2.40778
   C       -6.80232         4.66950        -2.48359
   S       -7.15322         3.11547        -1.78198
   C       -8.89184         5.73307        -1.70420
   C       -9.17188         5.08087        -0.53705
   C      -10.52894         5.18556        -0.16354
   C      -11.30237         5.89779        -1.03390
   S      -10.33515         6.47136        -2.34901
   C      -12.75371         6.19893        -0.96068
  Cl      -11.14198         4.46517         1.27480
   C       -7.80105         8.21016        -3.14387
   C       -7.12351         9.11710        -3.90938
   S       -5.64157         8.45287        -4.56362
   C       -7.49890        10.45732        -4.19531
   C       -6.84981        11.35503        -5.02180
   C       -7.51180        12.58121        -5.07963
   C       -8.67227        12.61441        -4.28567
   S       -8.94848        11.13593        -3.47597
   C       -9.27632        13.88865        -4.41322
   C       -8.49349        14.66284        -5.29627
   C       -7.36639        13.86424        -5.74789
   C       -6.40538        14.24001        -6.63957
   C       -5.35207        13.38237        -7.02123
   N       -4.49373        12.68563        -7.32426
   C       -6.41906        15.51964        -7.23417
   N       -6.44652        16.56517        -7.70436
   C       -9.01654        15.92808        -5.51481
   C      -10.19735        16.13723        -4.81297
   S      -10.63297        14.73584        -3.83858
   C      -11.00436        17.29250        -4.74165
   C      -11.05513        18.32886        -5.63280
   C      -11.55552        19.66230        -5.31129
   C      -12.33739        20.02326        -4.24695
   C      -12.84704        19.14535        -3.26711
   N      -13.29807        18.49100        -2.43820
   C      -12.78339        21.34064        -4.00505
   N      -13.18076        22.38562        -3.74588
   C      -11.05710        20.55805        -6.34668
   C      -10.42263        19.79010        -7.34923
   C       -9.82955        20.40098        -8.44146
   C       -9.88042        21.78382        -8.53233
   C      -10.51521        22.53994        -7.55687
   C      -11.10770        21.93899        -6.45614
   C      -10.55077        18.38395        -7.00144
   C      -10.48333        17.34545        -7.89079
   C      -10.11995        17.49279        -9.24685
   N       -9.83750        17.54618       -10.35737
   C      -10.86418        16.01952        -7.60122
   N      -11.19570        14.93262        -7.43670
   H        2.86135        -0.77274        -0.07214
   H        2.65518         1.60531        -0.65187
   H        0.45178         2.67182        -0.83681
   H       -1.60730         1.38736        -0.42149
   H       -0.78041        -4.79796         0.08599
   H       -3.23865        -6.23390         0.27689
   H       -5.49157        -3.99518        -2.29170
   H       -5.85091        -1.91985        -0.86453
   H       -7.03550         0.37793        -1.07310
   H       -3.98880         3.15847        -3.54907
   H       -3.07078         7.76597        -4.23652
   H       -0.28160         5.32227        -7.41266
   H       -1.66922         4.61026        -8.24852
   H       -0.86654         3.70834        -6.96528
   H       -8.43922         4.57469         0.06315
   H      -13.17131         5.76516        -0.05569
   H      -13.27554         5.78709        -1.82405
   H      -12.92332         7.27508        -0.94949
   H       -8.72315         8.45286        -2.64832
   H       -5.94559        11.10890        -5.54907
   H       -8.55052        16.68580        -6.11838
   H      -11.59799        17.37614        -3.84117
   H       -9.32379        19.82313        -9.19783
   H       -9.41704        22.27630        -9.37331
   H      -10.54516        23.61474        -7.64995
   H      -11.58810        22.54391        -5.70500
*
