# ORCA input file
# SCF done       -243.129552886692          0.000427607554
! CAM-B3LYP def2-SVP def2/J RIJCOSX Grid4 TightSCF
%maxcore 5000
%tddft
    Mode sTDDFT
    Ethresh 5.0
    maxcore 5000
end

%pal
  nprocs 6
  end
* xyz 0 1
   C       16.84405        -0.09237       -11.98715
   C       15.86090        -0.46552       -11.14370
   C       15.89301         0.23985        -9.90491
   C       15.03467         0.10529        -8.79889
   C       13.96970        -0.87790        -8.74347
   C       12.71924        -0.73034        -8.21719
   C       11.96098        -1.92054        -8.26798
   C       12.61382        -2.98570        -8.81429
   S       14.20989        -2.51499        -9.29359
   C       12.13006        -4.37535        -9.01395
  Cl       10.34392        -2.00273        -7.68084
   C       15.26810         0.95728        -7.72396
   C       16.32661         1.89717        -7.68677
   C       17.20446         2.00678        -8.78138
   C       16.94370         1.18664        -9.87486
   S       17.87306         1.14090       -11.34839
   C       18.32942         2.92066        -8.74792
   C       19.20241         3.13893        -7.72194
   C       20.17819         4.11048        -8.03552
   C       20.06181         4.64533        -9.28465
   S       18.71887         3.93085       -10.11271
   C       20.90253         5.67989        -9.93860
  Cl       21.40752         4.57012        -6.91798
   C       16.33705         2.63915        -6.47864
   C       15.35646         2.27277        -5.60254
   S       14.35104         0.98870        -6.24475
   C       15.08923         2.79146        -4.30354
   C       15.81142         3.71912        -3.58587
   C       15.25164         3.96312        -2.32938
   C       14.09108         3.22298        -2.07893
   S       13.68986         2.21316        -3.41814
   C       13.57026         3.47738        -0.80733
   C       14.33355         4.41652        -0.08813
   S       15.71302         4.98836        -0.98905
   C       13.71989         4.59568         1.14682
   C       12.60839         3.75030         1.16024
   N       12.52712         3.08164        -0.03726
   C       11.46480         2.24214        -0.51649
   C       11.68630         3.54962         2.24856
   C       11.25501         4.62896         3.05049
   C       10.32325         4.46992         4.12974
   N        9.97799         5.55064         4.86276
   C       10.46818         6.72372         4.57269
   C       11.34518         6.89022         3.45752
   N       11.71114         5.86420         2.74358
   C       11.87558         8.22876         3.06649
   C       10.07320         7.87394         5.43736
   C        9.76076         3.20874         4.44472
   C       10.24969         2.12495         3.68825
   C       11.19792         2.28429         2.61216
   N       11.54767         1.10201         2.09070
   S       10.75618        -0.06832         2.85060
   N        9.93047         0.84479         3.88284
   C        8.76328         2.98817         5.43674
   C        8.14385         3.90126         6.26914
   C        7.17149         3.31165         7.07117
   C        7.02965         1.93468         6.85998
   S        8.13404         1.36161         5.66238
   C        6.02297         1.38923         7.66080
   C        5.40386         2.34676         8.48697
   S        6.06630         3.94391         8.27496
   C        4.42463         1.69016         9.22417
   C        4.45558         0.35235         8.82328
   N        5.44006         0.18246         7.87417
   C        5.88689        -1.03097         7.24834
   C        3.59793        -0.68714         9.29787
   C        3.28865        -1.89504         8.74511
   C        2.38494        -2.66840         9.51684
   C        1.90102        -3.96055         9.24066
   C        2.34059        -4.72897         8.09357
   C        1.60369        -5.56944         7.31056
   C        2.37289        -6.20660         6.31186
   C        3.69617        -5.87836         6.31898
   S        4.01193        -4.74252         7.58727
   C        4.78359        -6.35785         5.42892
  Cl        1.67861        -7.30547         5.18212
   C        0.98998        -4.48847        10.15383
   C        0.57819        -3.80867        11.32373
   C        1.07974        -2.52577        11.60899
   C        1.96531        -1.98476        10.68227
   S        2.74269        -0.43054        10.80901
   C        0.72519        -1.79087        12.80799
   C        0.47233        -0.45471        12.92197
   C        0.21329        -0.05901        14.25242
   C        0.27600        -1.06953        15.16603
   S        0.65439        -2.56024        14.37056
   C        0.06726        -1.01422        16.63503
  Cl       -0.15141         1.57168        14.66925
   C       -0.35034        -4.58339        12.08035
   C       -0.60356        -5.78738        11.53071
   S        0.25160        -6.06421        10.05404
   H       17.04033        -0.46272       -12.97418
   H       15.12561        -1.20957       -11.38687
   H       12.32951         0.19467        -7.83530
   H       12.71636        -5.07513        -8.41850
   H       12.22026        -4.66757       -10.05941
   H       11.08751        -4.44587        -8.71386
   H       19.18417         2.60069        -6.79231
   H       21.66690         6.02343        -9.24604
   H       20.29476         6.52970       -10.24703
   H       21.38621         5.27398       -10.82665
   H       17.03228         3.43291        -6.28071
   H       16.70498         4.18911        -3.95138
   H       14.02846         5.22700         1.95298
   H       11.62123         1.20418        -0.21620
   H       11.43674         2.29998        -1.60462
   H       10.51120         2.58360        -0.11361
   H       12.46018         8.65707         3.87951
   H       11.05705         8.91186         2.84487
   H       12.50441         8.12158         2.18735
   H        9.41928         7.52703         6.23231
   H        9.55360         8.62894         4.84899
   H       10.95576         8.33797         5.87515
   H        8.40461         4.94167         6.26542
   H        3.75485         2.10646         9.94917
   H        5.91919        -1.84457         7.97341
   H        6.88756        -0.86260         6.85112
   H        5.23259        -1.31340         6.41962
   H        3.64627        -2.21850         7.78853
   H        0.54404        -5.71185         7.40978
   H        4.36322        -6.97937         4.64225
   H        5.50909        -6.94577         5.99128
   H        5.31050        -5.51829         4.97732
   H        0.43653         0.22507        12.09137
   H       -0.18770         0.00075        16.92939
   H        0.97045        -1.31921        17.16298
   H       -0.73831        -1.68377        16.93470
   H       -0.80768        -4.24285        12.99033
   H       -1.25971        -6.55384        11.89372
*
