# ORCA input file
# SCF done       -281.899195877631          0.000515171320
! CAM-B3LYP def2-SVP def2/J RIJCOSX Grid4 TightSCF
%maxcore 5000
%tddft
    Mode sTDDFT
    Ethresh 5.0
    maxcore 5000
end

%pal
  nprocs 6
  end
* xyz 0 1
   C        2.17441         1.16458         3.05673
   C        2.71955         0.61902         1.92365
   C        3.23077        -0.69472         1.84998
   N        3.66290        -1.74942         1.71188
   C        2.89497         1.25923         0.67803
   N        3.09450         1.69232        -0.36735
   C        2.08340         0.48467         4.34358
   C        1.59514         1.41005         5.30667
   C        1.41172         1.06765         6.61531
   C        1.70649        -0.25021         7.02863
   C        2.18687        -1.18785         6.06948
   C        2.37207        -0.80018         4.72246
   C        2.47276        -2.50253         6.49080
   C        2.29448        -2.87411         7.79557
   C        1.82235        -1.94942         8.73910
   C        1.53474        -0.66527         8.36375
   C        1.33830         2.70760         4.66217
   O        0.96260         3.71159         5.23298
   C        1.63732         2.51061         3.22065
   C        1.40449         3.35549         2.17214
   C        0.86769         4.66227         2.11868
   C        0.45381         5.53693         3.09281
   C       -0.04753         6.75235         2.59158
   C       -0.55274         7.84391         3.33663
   C       -0.46619         7.86073         4.77970
   C        0.56290         7.41891         5.56435
   C        0.30927         7.58974         6.94078
   C       -0.90187         8.15206         7.22724
   S       -1.75788         8.49584         5.76397
   C       -1.49331         8.46272         8.55257
  Cl        1.44379         7.12485         8.14735
   C       -1.12685         8.87360         2.60370
   C       -1.14824         8.90410         1.18502
   C       -0.54902         7.86492         0.44246
   C       -0.04829         6.79099         1.17094
   S        0.65062         5.34820         0.50696
   C       -0.46175         7.93540        -1.00133
   C       -0.17289         9.03022        -1.76602
   C       -0.16122         8.74136        -3.14741
   C       -0.44101         7.44162        -3.45494
   S       -0.72099         6.53592        -2.00643
   C       -0.51022         6.79312        -4.78836
  Cl        0.18116         9.94468        -4.33309
   C       -1.84973        10.02947         0.69291
   C       -2.32401        10.85290         1.67629
   S       -1.90256        10.28070         3.27479
   C       -3.12641        12.02141         1.53376
   C       -3.63053        12.57832         0.37899
   C       -4.44356        13.69912         0.59959
   C       -5.09212        14.47206        -0.47036
   C       -5.96698        13.83202        -1.33851
   C       -6.65707        14.58033        -2.28757
   C       -6.45484        15.95259        -2.36314
   C       -5.56364        16.58934        -1.50536
   C       -4.86876        15.84168        -0.56172
   O       -5.46281        17.93504        -1.65484
   C       -4.66939        18.65448        -0.74230
   O       -7.56889        14.07070        -3.16214
   C       -7.84864        12.69154        -3.11715
   C       -4.57386        13.99789         1.94943
   S       -3.65579        12.90310         2.93285
   C       -5.41278        14.98539         2.54653
   C       -6.49560        15.58850         1.97599
   C       -7.14404        16.52213         2.81207
   C       -8.22465        17.35883         2.47589
   C       -8.81771        17.36989         1.15290
   C       -9.22854        18.46195         0.44354
   C       -9.76191        18.12621        -0.81928
   C       -9.78606        16.78936        -1.08927
   S       -9.12137        15.91092         0.24440
   C      -10.27531        16.08767        -2.30175
  Cl      -10.32904        19.31988        -1.92003
   C       -8.68265        18.21160         3.47746
   C       -8.08939        18.27083         4.76720
   C       -6.95895        17.47498         5.08327
   C       -6.53045        16.60539         4.09000
   S       -5.15988        15.52818         4.19347
   C       -6.27546        17.56431         6.35433
   C       -5.67181        16.56036         7.05933
   C       -5.04529        17.01971         8.23649
   C       -5.14443        18.36554         8.44420
   S       -6.04394        19.09514         7.15998
   C       -4.60756        19.17962         9.56284
  Cl       -4.22497        15.95582         9.31333
   C       -8.80322        19.13490         5.61023
   C       -9.90067        19.73182         5.01694
   S      -10.07445        19.24652         3.34449
   C      -10.74332        20.59914         5.74422
   C      -11.89860        21.22849         5.37796
   C      -12.71864        22.06040         6.24282
   C      -12.42089        22.48242         7.51303
   C      -13.26910        23.29674         8.29283
   N      -13.90983        23.95479         8.98173
   C      -11.23932        22.19378         8.22707
   N      -10.31045        22.01476         8.87941
   C      -13.93271        22.39719         5.50687
   C      -13.83923        21.84416         4.19773
   C      -12.56304        21.12556         4.06462
   O      -12.15030        20.56330         3.06868
   C      -14.83431        21.99210         3.27546
   C      -15.99928        22.70842         3.62996
   C      -16.10458        23.26138         4.93874
   C      -15.05306        23.09710         5.86976
   C      -17.27436        23.96787         5.28465
   C      -18.29244        24.12071         4.38313
   C      -18.18737        23.57604         3.09469
   C      -17.06468        22.88570         2.72577
   H        1.04340         1.79405         7.32459
   H        2.73420        -1.53661         4.02331
   H        2.83727        -3.21077         5.76122
   H        2.51669        -3.88338         8.10826
   H        1.68759        -2.25982         9.76449
   H        1.17077         0.05157         9.08530
   H        1.64360         2.96774         1.18874
   H        0.47980         5.28709         4.13648
   H        1.48625         7.02297         5.18521
   H       -2.35941         7.82914         8.74417
   H       -1.82222         9.50004         8.59117
   H       -0.75497         8.29232         9.33216
   H        0.07071         9.99695        -1.36570
   H       -1.48743         6.33770        -4.94436
   H        0.24120         6.00831        -4.86999
   H       -0.33482         7.53206        -5.56624
   H       -2.02961        10.20021        -0.35169
   H       -3.41579        12.19742        -0.60290
   H       -6.12094        12.77042        -1.23413
   H       -6.99841        16.53625        -3.08685
   H       -4.17698        16.30171         0.12472
   H       -4.78032        19.70168        -1.01843
   H       -3.61411        18.37256        -0.81434
   H       -5.01570        18.51243         0.28706
   H       -8.59665        12.51839        -3.88919
   H       -8.25652        12.39778        -2.14468
   H       -6.95921        12.09332        -3.33665
   H       -6.82823        15.35655         0.98494
   H       -9.13223        19.47498         0.78671
   H      -11.08287        15.40125        -2.04754
   H       -9.47330        15.50961        -2.76001
   H      -10.64377        16.81568        -3.02016
   H       -5.69946        15.52346         6.78121
   H       -4.16767        18.52711        10.31290
   H       -5.39998        19.76896        10.02210
   H       -3.84325        19.86904         9.20403
   H       -8.55667        19.31104         6.64149
   H      -10.40623        20.74753         6.76322
   H      -14.73553        21.56306         2.28937
   H      -15.16671        23.52640         6.85229
   H      -17.35057        24.38576         6.27778
   H      -19.18510        24.66214         4.65840
   H      -19.00049        23.70571         2.39616
   H      -16.97775        22.46382         1.73515
*
