# ORCA input file
# SCF done       -185.547300982856          0.000998336563
! CAM-B3LYP def2-SVP def2/J RIJCOSX Grid4 TightSCF
%maxcore 5000
%tddft
    Mode sTDDFT
    Ethresh 5.0
    maxcore 5000
end

%pal
  nprocs 6
  end
* xyz 0 1
   C        3.24020         0.62163         0.09782
   C        2.23649         1.50752        -0.09135
   C        1.01352         1.18476        -0.71362
   C        0.74791        -0.20654        -1.11382
   C        1.63193        -1.22388        -1.01830
   S        3.21764        -1.04354        -0.38597
   C       -0.58986        -0.21341        -1.59859
   C       -1.12054         1.06921        -1.51334
   C       -2.45015         1.13096        -1.98372
   C       -2.88646        -0.08561        -2.40322
   S       -1.70866        -1.34692        -2.25011
   C       -0.11889         1.96557        -0.98137
   C       -0.36635         3.35238        -0.82514
   C        0.55813         4.33131        -0.64356
   C        0.27656         5.71626        -0.49888
   C        1.35424         6.62610        -0.34155
   C        1.16141         8.03826        -0.23318
   N        2.23884         8.85332        -0.22099
   C        3.43639         8.34562        -0.19000
   C        3.62582         6.93036        -0.16620
   N        2.60774         6.12323        -0.27756
   C        4.98434         6.32156        -0.04675
   C        4.59115         9.29314        -0.18896
   C       -0.12740         8.61132        -0.20708
   C       -1.20749         7.71819        -0.32003
   C       -1.01469         6.29212        -0.47674
   N       -2.18091         5.64623        -0.54792
   S       -3.37951         6.71111        -0.40904
   N       -2.50157         8.03931        -0.25091
   C       -0.31631        10.03376        -0.08536
   C        0.45719        10.81391         0.79615
   C        0.32759        12.23676         0.84147
   N        1.15213        12.94028         1.63650
   C        2.02776        12.33595         2.39417
   C        2.06381        10.91181         2.43484
   N        1.29915        10.20200         1.65361
   C        2.96496        10.17896         3.37412
   C        2.94044        13.18107         3.21689
   C       -0.62314        12.96117         0.08447
   C       -1.43574        12.16959        -0.76783
   C       -1.26144        10.73274        -0.85734
   N       -2.05884        10.19147        -1.77959
   S       -2.96501        11.33510        -2.43387
   N       -2.38190        12.59107        -1.60964
   C       -0.70942        14.38669         0.17611
   C       -1.68575        15.09219        -0.49980
   C       -1.84972        16.46807        -0.49632
   C       -0.95201        17.34403         0.24625
   C        0.07090        16.87344         0.99281
   S        0.47346        15.20807         1.18908
   C       -1.42002        18.66220        -0.00815
   C       -2.54040        18.62280        -0.84460
   C       -3.02334        19.92366        -1.12325
   C       -2.28352        20.88230        -0.50965
   S       -0.96977        20.26020         0.43252
   C       -2.83263        17.24880        -1.15827
   C       -3.87085        16.70383        -1.93663
   C       -4.88111        17.38056        -2.54901
   C       -5.92056        16.77324        -3.30075
   C       -6.93030        17.51448        -3.87265
   C       -7.99977        17.00033        -4.60673
   C       -8.12582        15.55447        -4.83839
   C       -7.24944        14.63527        -4.38278
   S       -5.85775        15.01509        -3.45625
   C       -9.31174        15.40352        -5.60253
   C       -9.89007        16.65458        -5.83932
   C      -11.08932        16.53506        -6.58153
   C      -11.37374        15.24272        -6.88293
   S      -10.21139        14.10686        -6.28371
   C       -9.07107        17.66403        -5.22360
   C       -9.26836        19.08309        -5.21303
   C      -10.19308        19.76672        -5.88976
   H        4.16311         0.89127         0.58219
   H        2.38098         2.50980         0.28231
   H        1.39752        -2.22610        -1.34039
   H       -3.05274         2.02067        -2.01002
   H       -3.84813        -0.33778        -2.80561
   H       -1.40333         3.65027        -0.90163
   H        1.61280         4.10360        -0.64329
   H        5.62055         6.64624        -0.86854
   H        4.89833         5.23909        -0.06620
   H        5.45625         6.62850         0.88558
   H        4.21514        10.31222        -0.19205
   H        5.21417         9.13724        -1.06866
   H        5.20904         9.13698         0.69407
   H        4.00419        10.44901         3.19215
   H        2.83756         9.11033         3.22699
   H        2.72659        10.43101         4.40664
   H        2.71992        14.22879         3.03613
   H        3.97870        12.97918         2.95655
   H        2.81107        12.96065         4.27551
   H       -2.36952        14.49539        -1.08507
   H        0.72286        17.53096         1.54782
   H       -3.86728        20.15899        -1.74532
   H       -2.42395        21.94506        -0.54764
   H       -3.85775        15.62596        -2.03735
   H       -4.93675        18.45539        -2.46676
   H       -6.87791        18.58518        -3.72628
   H       -7.36414        13.57898        -4.57171
   H      -11.72507        17.34809        -6.87898
   H      -12.21475        14.86619        -7.43216
   H       -8.57608        19.63499        -4.58946
   H      -10.90100        19.29186        -6.54309
   H      -10.25985        20.83819        -5.81481
*
