# ORCA input file
# SCF done       -205.335431971333          0.000249309133
! CAM-B3LYP def2-SVP def2/J RIJCOSX Grid4 TightSCF
%maxcore 5000
%tddft
    Mode sTDDFT
    Ethresh 5.0
    maxcore 5000
end

%pal
  nprocs 6
  end
* xyz 0 1
   C       -2.99287        -3.88737         6.84564
   C       -1.76337        -4.03946         6.21700
   C       -1.66104        -4.63046         4.90453
   N       -0.46673        -4.75785         4.31752
   C        0.60995        -4.34537         4.94174
   C        0.50781        -3.76421         6.25378
   N       -0.64401        -3.62494         6.84998
   C        1.68781        -3.32867         6.91372
   N        2.65800        -2.98759         7.41626
   C        1.87114        -4.46929         4.31104
   N        2.90594        -4.55048         3.82654
   C       -2.79651        -5.08414         4.19001
   C       -4.03825        -4.91906         4.84208
   C       -4.12207        -4.32374         6.16209
   N       -5.38897        -4.26473         6.59363
   S       -6.35178        -4.88121         5.47819
   N       -5.24404        -5.26130         4.38420
   C       -2.66243        -5.65754         2.89942
   C       -3.69560        -6.09611         2.07646
   C       -3.22257        -6.59619         0.87502
   C       -1.80966        -6.54975         0.77852
   S       -1.07880        -5.87310         2.16997
   C       -1.43063        -7.06879        -0.47602
   C       -2.60219        -7.43938        -1.18129
   C       -3.76160        -7.15835        -0.35047
   C       -5.07256        -7.37578        -0.65853
   C       -5.47189        -7.92893        -1.89389
   N       -5.80420        -8.37765        -2.89536
   C       -6.11735        -7.06241         0.23684
   N       -6.97262        -6.81095         0.95790
   C       -2.33566        -7.94809        -2.43948
   C       -0.96813        -7.98129        -2.70833
   S       -0.00383        -7.37666        -1.36939
   C       -0.35462        -8.42127        -3.90495
   C        1.05431        -8.44971        -4.03576
   C        1.70708        -8.86812        -5.24670
   N        3.04247        -8.87364        -5.30965
   C        3.74912        -8.50194        -4.26867
   C        3.09927        -8.08953        -3.06167
   N        1.78971        -8.07403        -2.98440
   C        3.86417        -7.69846        -1.93416
   N        4.50749        -7.39168        -1.03820
   C        5.16406        -8.51177        -4.35319
   N        6.30821        -8.50833        -4.39408
   C        0.98620        -9.26836        -6.39695
   C       -0.42408        -9.25745        -6.26542
   C       -1.08014        -8.84804        -5.04417
   N       -2.40636        -8.92125        -5.15646
   S       -2.79459        -9.44530        -6.62047
   N       -1.30877        -9.60780        -7.19891
   C        1.65654        -9.63641        -7.58736
   C        1.06383        -9.97869        -8.80193
   C        2.00562       -10.27041        -9.77185
   C        3.33675       -10.16348        -9.29867
   S        3.41176        -9.68246        -7.65799
   C        4.21359       -10.47873       -10.35634
   C        3.44089       -10.77932       -11.50543
   C        2.03272       -10.65706       -11.17302
   C        0.96419       -10.85429       -11.99773
   C        1.11682       -11.22524       -13.35072
   N        1.23097       -11.52648       -14.45113
   C       -0.36606       -10.69687       -11.55370
   N       -1.44943       -10.56827       -11.20087
   C        4.21758       -11.09689       -12.60689
   C        5.57745       -11.05190       -12.31403
   S        5.89537       -10.60883       -10.64397
   C        6.64367       -11.31917       -13.21077
   C        7.98915       -11.28353       -12.77027
   C        9.09633       -11.54911       -13.65679
   N       10.35892       -11.50275       -13.17809
   C       10.54750       -11.22149       -11.91838
   C        9.44413       -10.96096       -11.03274
   N        8.21356       -10.99810       -11.48364
   C        9.67720       -10.66958        -9.66725
   N        9.90029       -10.44109        -8.56717
   C       11.87249       -11.17499       -11.40863
   N       12.92652       -11.13087       -10.96456
   C        8.89060       -11.85242       -14.99682
   C        7.57752       -11.89464       -15.45156
   C        6.45238       -11.63353       -14.57420
   N        5.29257       -11.72884       -15.22725
   S        5.57833       -12.10239       -16.75929
   N        7.17316       -12.16716       -16.69934
   H       -3.05822        -3.44708         7.82543
   H       -4.72600        -6.03338         2.37547
   H       -3.06296        -8.28551        -3.15485
   H       -0.00317        -9.99817        -8.92713
   H        3.85518       -11.35267       -13.58584
   H        9.72335       -12.04577       -15.65047
*
