# ORCA input file
# SCF done       -200.523601951851          0.000964561242
! CAM-B3LYP def2-SVP def2/J RIJCOSX Grid4 TightSCF
%maxcore 5000
%tddft
    Mode sTDDFT
    Ethresh 5.0
    maxcore 5000
end

%pal
  nprocs 6
  end
* xyz 0 1
   C       -5.72833        -0.69427        -3.07841
   C       -5.53425        -1.30563        -4.38852
   O       -5.54435        -2.48933        -4.66216
   C       -5.31984        -0.17668        -5.33366
   C       -5.37423         1.04033        -4.63725
   C       -5.63258         0.77483        -3.19231
   O       -5.74155         1.58117        -2.30136
   C       -5.19850         2.23050        -5.31974
   C       -4.96929         2.21890        -6.69398
   C       -4.91705         1.02116        -7.37883
   C       -5.09256        -0.18127        -6.69854
   F       -5.03699        -1.32330        -7.38664
   F       -5.24379         3.40405        -4.68771
   C       -5.97272        -1.30143        -1.88020
   C       -6.09897        -2.66532        -1.56814
   C       -6.36722        -3.12705        -0.27557
   C       -6.44594        -4.50532        -0.21489
   C       -6.23132        -5.11191        -1.47808
   S       -5.94280        -3.98832        -2.72368
   C       -6.32933        -6.51457        -1.31745
   C       -6.60809        -6.79453         0.03846
   C       -6.68729        -5.54395         0.77388
   C       -6.93103        -5.38327         2.10623
   C       -7.14843        -6.47911         2.96842
   N       -7.32791        -7.36419         3.67492
   C       -6.97989        -4.10947         2.71116
   N       -7.01762        -3.07466         3.20331
   C       -6.72448        -8.15277         0.29483
   C       -6.53219        -8.91679        -0.85146
   S       -6.20308        -7.93044        -2.26524
   C       -6.57677       -10.33428        -0.93953
   C       -6.32460       -11.01180        -2.15279
   C       -6.34893       -12.44082        -2.25715
   N       -6.09131       -13.01893        -3.44747
   C       -5.82747       -12.28167        -4.47674
   C       -5.80442       -10.86490        -4.37357
   N       -6.04594       -10.27639        -3.24753
   F       -5.53382       -10.10697        -5.42893
   F       -5.57857       -12.88871        -5.63106
   C       -6.63192       -13.27905        -1.15667
   C       -6.89693       -12.60836         0.06131
   C       -6.86810       -11.16668         0.16793
   N       -7.14708       -10.76659         1.40994
   S       -7.41449       -12.04209         2.33933
   N       -7.19428       -13.17622         1.23142
   C       -6.63915       -14.69451        -1.27884
   C       -6.90379       -15.61216        -0.26734
   C       -6.81529       -16.92159        -0.71636
   C       -6.48065       -17.00608        -2.08475
   S       -6.28078       -15.47024        -2.81017
   C       -6.40514       -18.37194        -2.43702
   C       -6.69022       -19.15874        -1.29407
   C       -6.96547       -18.26606        -0.17886
   C       -7.30165       -18.59740         1.09963
   C       -7.44801       -19.92885         1.54895
   N       -7.58445       -20.99277         1.95226
   C       -7.54160       -17.61336         2.08407
   N       -7.73519       -16.82139         2.89014
   C       -6.62073       -20.52256        -1.54131
   C       -6.28848       -20.79722        -2.86364
   S       -6.06555       -19.31651        -3.80621
   C       -6.10215       -22.01179        -3.55204
   C       -6.15248       -23.30661        -3.12849
   C       -5.89827       -24.38464        -4.11154
   O       -5.65905       -24.24377        -5.28663
   C       -5.99941       -25.65752        -3.34933
   C       -6.29380       -25.37418        -2.00838
   C       -6.40694       -23.90045        -1.80645
   O       -6.65304       -23.34479        -0.76107
   C       -6.43247       -26.41004        -1.10058
   C       -6.27974       -27.72885        -1.52118
   C       -5.98973       -28.00759        -2.84241
   C       -5.84892       -26.97037        -3.76045
   F       -5.56763       -27.27024        -5.02992
   F       -6.71109       -26.17556         0.18188
   H       -4.83467         3.15662        -7.20974
   H       -4.74081         0.99974        -8.44276
   H       -6.08937        -0.62470        -1.03794
   H       -6.49404        -2.45939         0.55805
   H       -6.93576        -8.59955         1.24866
   H       -7.14249       -15.30150         0.73290
   H       -6.79268       -21.30298        -0.81987
   H       -5.86956       -21.90624        -4.60974
   H       -6.39130       -28.52372        -0.80066
   H       -5.86871       -29.02524        -3.17902
*
