# ORCA input file
# SCF done       -192.932738977234          0.000528742891
! CAM-B3LYP def2-SVP def2/J RIJCOSX Grid4 TightSCF
%maxcore 5000
%tddft
    Mode sTDDFT
    Ethresh 5.0
    maxcore 5000
end

%pal
  nprocs 6
  end
* xyz 0 1
   C       -0.61478         1.95119        -3.18304
   C       -1.49238         2.40667        -2.23685
   C       -1.21264         2.23942        -0.87233
   C       -0.06035         1.61904        -0.47237
   C        0.86421         1.13501        -1.41992
   C        2.04965         0.48093        -1.01183
   C        2.92136         0.01722        -1.95978
   C        2.64382         0.21563        -3.34418
   C        1.50399         0.83736        -3.76617
   C        0.58065         1.30821        -2.80588
   C        3.75368        -0.32570        -4.14365
   O        3.85448        -0.38699        -5.34735
   C        4.78788        -0.74535        -3.14916
   C        4.17653        -0.71820        -1.83648
   C        4.54518        -1.45435        -0.74003
   C        5.63093        -2.34959        -0.71952
   N        6.49246        -3.10735        -0.66789
   C        3.81859        -1.47809         0.46943
   N        3.26502        -1.53951         1.47258
   C        6.04877        -0.98500        -3.59978
   C        7.26406        -1.05347        -2.88196
   C        7.57408        -0.56547        -1.62125
   C        8.89280        -0.82549        -1.26774
   C        9.60336        -1.51206        -2.27038
   S        8.65473        -1.81232        -3.64850
   C       10.91639        -1.76275        -1.79377
   C       11.03273        -1.24215        -0.49477
   C        9.76343        -0.64080        -0.11794
   C        9.43507        -0.05836         1.07060
   C       10.35967         0.05501         2.12993
   N       11.11924         0.15089         2.98336
   C        8.14516         0.46473         1.30245
   N        7.09519         0.89214         1.47426
   C       12.29480        -1.45824         0.06377
   C       13.13615        -2.13288        -0.79732
   S       12.35211        -2.50812        -2.32750
   C       14.49302        -2.54031        -0.57594
   C       15.16647        -2.36526         0.64628
   N       16.40172        -2.76187         0.83197
   C       17.02848        -3.35358        -0.18900
   N       16.49127        -3.56069        -1.39581
   C       15.25789        -3.16209        -1.57807
   C       18.37164        -3.80465         0.02542
   C       19.19032        -4.44083        -0.88667
   C       20.42979        -4.74930        -0.32896
   C       20.53553        -4.33791         1.01460
   S       19.11785        -3.57556         1.58442
   C       21.82094        -4.69848         1.49298
   C       22.52769        -5.33840         0.45047
   C       21.67355        -5.39010        -0.72665
   C       21.96490        -5.92598        -1.94532
   C       23.19836        -6.54210        -2.25287
   N       24.18140        -7.05289        -2.54612
   C       21.03840        -5.90734        -3.01113
   N       20.29666        -5.89815        -3.88518
   C       23.80676        -5.73401         0.81776
   C       24.09746        -5.40779         2.13659
   S       22.73410        -4.58932         2.91959
   C       25.23185        -5.60049         2.95302
   C       26.44850        -6.17416         2.70770
   C       27.50323        -6.28836         3.70770
   C       27.46932        -5.85984         5.01017
   C       28.53870        -6.01131         5.91957
   N       29.36089        -6.09460         6.71644
   C       26.39873        -5.21218         5.66214
   N       25.58864        -4.67938         6.27916
   C       28.64135        -6.95522         3.08525
   C       28.31076        -7.24606         1.73283
   C       29.18178        -7.87281         0.88899
   C       30.45524        -8.24738         1.37107
   C       31.39786        -8.89735         0.55051
   C       32.62580        -9.25020         1.04107
   C       32.96426        -8.96838         2.37317
   C       32.07118        -8.33821         3.19637
   C       30.79736        -7.96069         2.72431
   C       29.87243        -7.30989         3.57266
   C       26.94842        -6.77458         1.44352
   O       26.38026        -6.86853         0.37581
   H       -0.82442         2.07744        -4.23516
   H       -2.40628         2.89848        -2.53465
   H       -1.91588         2.60430        -0.13886
   H        0.15757         1.48478         0.57687
   H        2.24513         0.37319         0.04360
   H        1.30840         0.96834        -4.82008
   H        6.12954        -1.08107        -4.67902
   H        6.87640        -0.01345        -1.01829
   H       12.58492        -1.13782         1.04744
   H       14.69085        -1.89701         1.49735
   H       14.84415        -3.33879        -2.56415
   H       18.87036        -4.65303        -1.89000
   H       24.51456        -6.23495         0.18081
   H       25.08589        -5.21593         3.95553
   H       28.89948        -8.07919        -0.13270
   H       31.13097        -9.11135        -0.47403
   H       33.34293        -9.74821         0.40580
   H       33.93730        -9.25349         2.74423
   H       32.32750        -8.11935         4.22261
   H       30.16653        -7.10956         4.59024
*
