# ORCA input file
# SCF done       -214.905889546098          0.000693043148
! CAM-B3LYP def2-SVP def2/J RIJCOSX Grid4 TightSCF
%maxcore 5000
%tddft
    Mode sTDDFT
    Ethresh 5.0
    maxcore 5000
end

%pal
  nprocs 6
  end
* xyz 0 1
   C       -6.20078        -2.39989         0.48760
   C       -6.36559        -2.51119         1.85969
   C       -5.73402        -3.48939         2.64605
   N       -5.24282        -4.25958         3.34455
   C       -7.21008        -1.70685         2.63931
   N       -7.90853        -1.09069         3.31790
   C       -5.44187        -3.31406        -0.34873
   C       -5.62161        -2.94603        -1.70737
   C       -5.04529        -3.62942        -2.74772
   C       -4.24773        -4.73978        -2.43631
   C       -4.07147        -5.09926        -1.08099
   C       -4.65576        -4.40373        -0.02582
   S       -3.04955        -6.49329        -0.91936
   C       -2.87634        -6.57464        -2.65358
   C       -3.54938        -5.60569        -3.31947
  Br       -1.82803        -7.92896        -3.41961
   C       -6.46887        -1.74975        -1.77311
   O       -6.74400        -1.10396        -2.77198
   C       -6.83038        -1.42788        -0.37586
   C       -7.55865        -0.37016         0.08296
   N       -8.42624         0.52466        -0.69795
   C       -9.20972        -0.27843        -1.65218
   C      -10.00731        -1.29783        -1.13822
   S      -10.21502        -1.49344         0.60714
   C      -10.16213         0.22290         1.01641
   C      -10.94826         0.69169         2.05919
   C      -10.92942         2.03326         2.38857
   C      -10.13680         2.90933         1.66587
   C       -9.33799         2.44539         0.63479
   C       -9.34356         1.09947         0.30404
   C      -10.68610        -2.15740        -1.99215
   C      -10.58742        -1.99054        -3.35878
   C       -9.83131        -0.94898        -3.87130
   C       -9.13876        -0.09904        -3.02739
   C       -7.53191         1.52159        -1.34563
   C       -8.03716         2.68613        -2.17999
   C       -9.29829         3.10146        -2.55930
   C       -9.48652         4.26375        -3.42686
   N      -10.70722         4.68985        -3.78521
   C      -11.77590         4.03879        -3.34534
   C      -11.69372         2.93216        -2.54452
   N      -10.45839         2.47883        -2.17419
   C       -8.39328         4.97063        -3.91299
   C       -7.11417         4.58535        -3.52427
   C       -6.94065         3.45367        -2.64755
   N       -5.66831         3.22248        -2.35237
   S       -4.75090         4.33155        -3.11466
   N       -5.94781         5.14343        -3.84799
   N       -6.56898         7.46334        -1.90390
   C       -7.86303         7.97692        -1.84487
   C       -8.91270         7.27291        -1.25169
   S       -8.65370         5.68408        -0.52370
   C       -6.91094         5.75624        -0.19872
   C       -6.40798         4.90286         0.76887
   C       -5.05029         4.85593         1.02812
   C       -4.20738         5.70392         0.33590
   C       -4.71151         6.58315        -0.60608
   C       -6.07342         6.61401        -0.91731
   C      -10.20246         7.77271        -1.23335
   C      -10.48566         8.99459        -1.81564
   C       -9.45699         9.72093        -2.38558
   C       -8.16510         9.22648        -2.38892
   C       -5.64681         8.00541        -2.87864
   C       -6.26868         8.09159        -4.22323
   C       -5.92372         8.84162        -5.28352
   C       -4.86829         9.81516        -5.52653
   C       -3.62634         9.86064        -4.94433
   C       -2.66230        10.85417        -5.21477
   N       -1.84466        11.64409        -5.37544
   C       -3.10662         8.87372        -4.08666
   N       -2.61192         8.07737        -3.42290
   C       -5.30286        10.65203        -6.63559
   C       -6.47754        10.09639        -7.20611
   C       -6.88192         8.91123        -6.43108
   O       -7.81574         8.17281        -6.63217
   C       -7.09528        10.64071        -8.30613
   C       -6.53538        11.79197        -8.86834
   C       -5.37030        12.34769        -8.28512
   C       -4.74215        11.79671        -7.17712
   S       -4.84890        13.77201        -9.13368
   C       -6.18105        13.60106       -10.24691
   C       -6.97784        12.53516        -9.99642
  Br       -6.39330        14.84621       -11.63308
   H       -5.20210        -3.32227        -3.76978
   H       -4.48486        -4.71592         0.99044
   H       -3.55236        -5.50486        -4.38949
   H       -7.54842        -0.12211         1.13004
   H      -10.41583         1.66925        -1.57514
   H      -11.55607        -0.01028         2.60659
   H      -11.53324         2.39228         3.20641
   H      -10.11662         3.96066         1.90314
   H       -8.72447         3.14756         0.09805
   H      -11.28388        -2.94706        -1.56560
   H      -11.10692        -2.66498        -4.02075
   H       -9.75669        -0.80227        -4.93643
   H       -8.53556         0.68007        -3.45836
   H       -6.85910         0.94041        -1.98746
   H       -6.90494         1.94145        -0.55090
   H      -12.73341         4.42846        -3.65765
   H      -12.54145         2.37934        -2.17820
   H       -8.56836         5.79691        -4.58022
   H       -7.09174         4.26923         1.31397
   H       -4.66410         4.17130         1.76645
   H       -3.14618         5.69546         0.52946
   H       -4.02336         7.24996        -1.09920
   H      -10.98168         7.18169        -0.77642
   H      -11.49601         9.37114        -1.81941
   H       -9.65295        10.68373        -2.83241
   H       -7.38390         9.82534        -2.82804
   H       -4.81437         7.29903        -2.96160
   H       -5.23150         8.97441        -2.56190
   H       -7.14188         7.46782        -4.36696
   H       -7.98295        10.18948        -8.72083
   H       -3.85989        12.25991        -6.76793
   H       -7.84206        12.28113       -10.58254
*
