# ORCA input file
# SCF done       -197.630624438002          0.000978864752
! CAM-B3LYP def2-SVP def2/J RIJCOSX Grid4 TightSCF
%maxcore 5000
%tddft
    Mode sTDDFT
    Ethresh 5.0
    maxcore 5000
end

%pal
  nprocs 6
  end
* xyz 0 1
   C        3.10910        -1.71274        -2.07178
   O        2.44380        -2.43068        -2.78493
   C        3.79706        -0.47453        -2.49651
   C        4.43798         0.11802        -1.39592
   C        5.13659         1.30194        -1.56761
   C        5.18381         1.86864        -2.83637
   C        4.54706         1.26817        -3.92484
   C        3.84242         0.08328        -3.75696
  Br        4.63399         2.06086        -5.63754
  Br        6.13416         3.48575        -3.07152
   C        4.21247        -0.71575        -0.21748
   C        4.78613        -0.51422         1.01050
   C        5.62832         0.57662         1.31734
   N        6.31861         1.43887         1.62750
   C        4.65692        -1.36476         2.12965
   N        4.61748        -2.01002         3.07873
   C        3.35582        -1.81915        -0.61552
   C        2.77941        -2.69871         0.26388
   C        2.03640        -3.86865         0.02751
   C        1.84603        -4.64268        -1.11311
   C        1.07874        -5.76840        -0.85991
   C        0.65864        -5.86556         0.48830
   S        1.23818        -4.58404         1.43903
   C       -0.12903        -7.03174         0.62915
   C       -0.20217        -7.67899        -0.61786
   C        0.55982        -6.91356        -1.59176
   C        0.76027        -7.22453        -2.90349
   C        0.19575        -8.37676        -3.49353
   N       -0.25853        -9.30994        -3.98037
   C        1.56192        -6.44218        -3.76408
   N        2.22345        -5.83836        -4.47882
   C       -0.95264        -8.85158        -0.57922
   C       -1.46053        -9.10944         0.68023
   S       -0.99610        -7.86615         1.83913
   C       -2.27755       -10.20948         1.10727
   C       -2.91039       -10.18763         2.34271
   C       -3.71749       -11.22496         2.77947
   C       -3.94260       -12.36376         2.01745
   C       -3.29868       -12.43653         0.74182
   N       -3.48370       -13.51167        -0.04487
   C       -2.88647       -13.56137        -1.20441
   C       -2.04787       -12.51916        -1.63642
   N       -1.85584       -11.45776        -0.90138
   C       -2.47217       -11.36747         0.29080
   C       -4.80039       -13.40944         2.49728
   C       -5.01382       -14.66562         1.96181
   C       -5.93277       -15.40711         2.70001
   C       -6.43550       -14.71090         3.81475
   S       -5.76250       -13.15065         3.95246
   C       -7.37791       -15.53534         4.47745
   C       -7.45969       -16.76053         3.78125
   C       -6.56280       -16.71461         2.63902
   C       -6.39791       -17.68068         1.69054
   C       -7.11772       -18.89280         1.75338
   N       -7.71267       -19.87012         1.82894
   C       -5.51576       -17.52699         0.59997
   N       -4.79372       -17.40494        -0.28186
   C       -8.39721       -17.62765         4.32008
   C       -9.05037       -17.08175         5.41796
   S       -8.44041       -15.47430         5.80395
   C      -10.05941       -17.65100         6.21929
   C      -10.87130       -18.71296         5.94473
   C      -11.55569       -19.39431         7.07771
   O      -11.65111       -18.99436         8.21340
   C      -12.03732       -20.67658         6.52016
   C      -11.77945       -20.71204         5.13750
   C      -11.19456       -19.43373         4.73149
   C      -11.22291       -18.94245         3.45291
   C      -10.88962       -17.61811         3.10692
   N      -10.65197       -16.54353         2.78071
   C      -11.68681       -19.67590         2.33913
   N      -12.05946       -20.22438         1.40347
   C      -12.10048       -21.84054         4.40355
   C      -12.69047       -22.91418         5.06167
   C      -12.96416       -22.86281         6.43057
   C      -12.63265       -21.73612         7.17262
  Br      -13.78297       -24.33002         7.29463
  Br      -13.11944       -24.46283         4.06818
   H        5.63795         1.79805        -0.75268
   H        3.34392        -0.39239        -4.58732
   H        2.89476        -2.46888         1.31680
   H        2.25262        -4.37504        -2.07086
   H       -1.13368        -9.50785        -1.40944
   H       -2.77946        -9.32806         2.98433
   H       -4.18725       -11.14145         3.74898
   H       -3.06767       -14.44310        -1.80301
   H       -1.53178       -12.54874        -2.58578
   H       -4.51491       -14.99461         1.06957
   H       -8.57738       -18.62753         3.97008
   H      -10.17628       -17.23687         7.21621
   H      -11.89513       -21.91520         3.34771
   H      -12.83463       -21.68954         8.23143
*
