# ORCA input file
# SCF done       -176.888177733320          0.001235681957
! CAM-B3LYP def2-SVP def2/J RIJCOSX Grid4 TightSCF
%maxcore 5000
%tddft
    Mode sTDDFT
    Ethresh 5.0
    maxcore 5000
end

%pal
  nprocs 6
  end
* xyz 0 1
   C       -8.13779         5.50226        -5.15527
   C       -7.16781         6.15511        -5.89937
   C       -6.17536         5.50282        -6.63304
   N       -5.38557         5.04493        -7.33940
   C       -7.10712         7.54132        -6.11120
   N       -6.98303         8.66402        -6.33106
   C       -8.17211         4.08267        -4.86445
   C       -9.38683         3.77199        -4.19286
   C       -9.70567         2.49837        -3.79424
   C       -8.78590         1.47775        -4.06536
   C       -7.57485         1.79738        -4.72462
   C       -7.24952         3.08456        -5.12875
   S       -6.58387         0.38679        -4.95567
   C       -7.79740        -0.59874        -4.17857
   C       -8.88579         0.09224        -3.76504
  Br       -7.51030        -2.44420        -3.99136
   C      -10.17165         5.00793        -4.05209
   O      -11.28850         5.14077        -3.56906
   C       -9.35261         6.07219        -4.64397
   C       -9.80943         7.35648        -4.78971
   N      -11.05853         7.70714        -4.44042
   C      -11.69106         8.84845        -4.84713
   S      -12.96835         9.49052        -3.85727
   C      -13.11189        10.83759        -4.94018
   N      -14.09252        11.79163        -4.67260
   O      -14.19171        12.73720        -5.43854
   O      -14.78738        11.60767        -3.68292
   C      -12.22415        10.78698        -5.98604
   C      -11.41587         9.63851        -5.96758
   C      -10.48867         9.32726        -7.04552
   C      -10.28571         8.09900        -7.54693
   C       -9.30554         7.81796        -8.55842
   C       -8.93459         6.60774        -9.00169
   C       -9.50321         5.29752        -8.55441
   C       -7.83268         6.49302       -10.04097
   N       -6.61682         7.16261        -9.64557
   C       -6.24922         8.41706        -9.95797
   C       -6.87499         9.26391       -10.83050
   C       -6.44107        10.55205       -11.19348
   C       -5.33481        11.26883       -10.79597
   C       -5.00390        12.56906       -11.25078
   C       -3.85480        13.08557       -10.72678
   C       -3.20787        12.22266        -9.82046
   S       -4.10815        10.73095        -9.65825
   C       -2.04497        12.40209        -9.09354
   C       -1.15412        13.49776        -9.07411
   C       -0.10799        13.33888        -8.21996
   C       -0.11219        12.10706        -7.50383
   S       -1.50210        11.14183        -8.00684
   C        0.80065        11.76073        -6.55387
   N        0.87843        10.60532        -5.84105
   C        1.62127        10.53395        -4.56603
   N        0.89679         9.63622        -3.69432
   C        0.31230         8.70058        -4.64043
   N       -0.81056         7.92343        -4.18125
   C       -1.64124         7.57337        -5.33338
   C       -0.83826         7.52439        -6.64802
   N       -0.38902         8.84863        -7.01761
   C       -0.16036         9.60951        -5.80401
   N       -1.82630         6.91881        -7.50550
   C       -2.29419         5.79329        -6.70985
   N       -2.23820         6.26080        -5.32397
   C       -3.30643         5.99688        -4.48336
   C       -3.63071         6.69290        -3.40169
   H      -10.63627         2.28963        -3.29010
   H       -6.31363         3.28087        -5.62602
   H       -9.72716        -0.35636        -3.26886
   H       -9.19304         8.12480        -5.23084
   H      -11.57766         6.99818        -3.90964
   H      -12.19257        11.53880        -6.75347
   H       -9.96525        10.17348        -7.46962
   H      -10.85954         7.26918        -7.15773
   H       -8.79094         8.68622        -8.94891
   H      -10.22734         5.40804        -7.75342
   H       -8.70292         4.64269        -8.20737
   H       -9.99161         4.80192        -9.39407
   H       -8.17092         6.91157       -10.99256
   H       -7.59452         5.43772       -10.20179
   H       -6.08162         6.69472        -8.92864
   H       -5.34125         8.72949        -9.46613
   H       -7.79196         8.94210       -11.30461
   H       -7.07520        11.07052       -11.90317
   H       -5.62959        13.08699       -11.95704
   H       -3.46270        14.05833       -10.96473
   H       -1.30864        14.36754        -9.68745
   H        0.66914        14.06737        -8.06696
   H        1.60009        12.45899        -6.34196
   H        1.74860        11.52063        -4.11770
   H        2.61223        10.09980        -4.76252
   H        0.15002        10.11533        -3.19835
   H        1.15957         8.08612        -5.00322
   H       -0.51911         7.09325        -3.67727
   H       -2.42597         8.34331        -5.43031
   H        0.02491         6.82888        -6.49414
   H        0.43431         8.82381        -7.60878
   H       -1.11881        10.07609        -5.52058
   H       -1.47148         6.63580        -8.41099
   H       -1.64005         4.90398        -6.80483
   H       -3.31056         5.52048        -7.01307
   H       -3.84371         5.09883        -4.75714
   H       -3.09128         7.57478        -3.10908
   H       -4.44207         6.37825        -2.77159
*
