# ORCA input file
# SCF done       -179.127300195533          0.000633812769
! CAM-B3LYP def2-SVP def2/J RIJCOSX Grid4 TightSCF
%maxcore 5000
%tddft
    Mode sTDDFT
    Ethresh 5.0
    maxcore 5000
end

%pal
  nprocs 6
  end
* xyz 0 1
   C       -7.81083         6.28212        -9.08975
   C       -8.85881         7.16684        -9.16818
   C       -8.75683         8.53871        -8.86984
   N       -8.73972         9.65827        -8.61240
   C      -10.16425         6.81926        -9.56098
   N      -11.24376         6.58419        -9.87757
   C       -6.44164         6.62133        -8.72191
   C       -5.62417         5.47703        -8.89067
   C       -4.28159         5.47544        -8.60918
   C       -3.73560         6.63130        -8.04036
   C       -4.55981         7.76614        -7.86505
   C       -5.90211         7.79247        -8.22228
   S       -3.69325         9.06934        -7.10856
   C       -2.27112         8.06708        -6.99867
   C       -2.42271         6.83414        -7.53505
  Br       -0.73552         8.74226        -6.16839
   C       -6.46560         4.34159        -9.30741
   O       -6.09909         3.23624        -9.65660
   C       -7.85130         4.85128        -9.30159
   C       -8.96558         4.06502        -9.40213
   N       -9.01454         2.72647        -9.20228
   C       -8.11504         1.91012        -8.55626
   S       -7.93638         0.28728        -9.14326
   C       -6.75608        -0.01885        -7.91969
   N       -6.11660        -1.25916        -7.91685
   O       -5.26731        -1.46023        -7.06457
   O       -6.44501        -2.05488        -8.78396
   C       -6.53514         1.05675        -7.10273
   C       -7.32325         2.17769        -7.43575
   C       -7.25619         3.45990        -6.77591
   C       -6.22041         3.81230        -5.99125
   C       -5.91415         5.12687        -5.50039
   C       -6.79398         6.18184        -5.43902
   O       -8.06587         6.16791        -5.87633
   C       -8.86502         7.28869        -5.56713
   S       -6.09770         7.59516        -4.69855
   C       -4.57730         6.76211        -4.49435
   O       -3.47991         7.36626        -4.00659
   C       -3.64374         8.64615        -3.44006
   C       -4.61092         5.47897        -4.97395
   C       -3.45503         4.61554        -4.95123
   C       -3.23660         3.69101        -5.91579
   C       -2.28782         2.64687        -5.94763
   C       -2.35354         1.68935        -6.92810
   C       -1.60418         0.49388        -7.06935
   C       -1.98562        -0.29008        -8.11565
   C       -3.04716         0.24410        -8.87968
   S       -3.54996         1.78418        -8.22090
   C       -3.67927        -0.26117        -9.99542
   C       -3.44945        -1.47512       -10.68608
   C       -4.24882        -1.64539       -11.76997
   C       -5.17024        -0.58417       -12.00598
   S       -4.95884         0.64527       -10.76898
   C       -6.05690        -0.52407       -13.04231
   C       -7.04129         0.46162       -13.32173
   C       -7.82324         0.45458       -14.43086
   C       -8.83212         1.54563       -14.32519
   C       -8.10833         2.53989       -13.41077
   C       -7.41826         1.62310       -12.41155
   C       -9.17381         3.59617       -13.15811
   C       -9.78767         3.71905       -14.58998
   C       -9.16220         4.98165       -15.11061
   C       -8.52232         5.65190       -14.16820
   C       -8.60698         4.98265       -12.82810
   C       -9.40624         2.46014       -15.36014
   C       -9.55031         2.25687       -16.65486
   H       -3.67841         4.60117        -8.79400
   H       -6.48217         8.68949        -8.08111
   H       -1.65279         6.08482        -7.55019
   H       -9.92898         4.50653        -9.62098
   H       -9.79726         2.24293        -9.62552
   H       -5.84085         1.01197        -6.28447
   H       -8.03507         4.17141        -6.98847
   H       -5.48860         3.06375        -5.73479
   H       -9.84848         7.08699        -5.98735
   H       -8.45443         8.20078        -6.01263
   H       -8.94775         7.42693        -4.48509
   H       -2.65431         8.95891        -3.11302
   H       -4.32680         8.61486        -2.58565
   H       -4.03096         9.35667        -4.17851
   H       -2.76233         4.75143        -4.13274
   H       -3.89968         3.70947        -6.77008
   H       -1.55703         2.54757        -5.15817
   H       -0.81902         0.24297        -6.37792
   H       -1.54048        -1.23887        -8.35632
   H       -2.70985        -2.18212       -10.35554
   H       -4.22242        -2.50716       -12.41341
   H       -6.01007        -1.34313       -13.75049
   H       -7.78650        -0.27043       -15.22372
   H       -9.69492         1.12824       -13.77308
   H       -7.32309         3.01656       -14.01123
   H       -8.11615         1.26164       -11.65072
   H       -6.57267         2.08798       -11.91135
   H       -9.90433         3.25737       -12.42023
   H      -10.87828         3.82654       -14.57431
   H       -9.25680         5.26673       -16.14331
   H       -8.00514         6.58763       -14.29517
   H       -9.27841         5.54489       -12.17219
   H       -7.63507         4.91659       -12.33421
   H       -9.97937         2.99994       -17.30537
   H       -9.24507         1.33394       -17.11738
*
