# ORCA input file
# SCF done       -175.202680544943          0.000430501001
! CAM-B3LYP def2-SVP def2/J RIJCOSX Grid4 TightSCF
%maxcore 5000
%tddft
    Mode sTDDFT
    Ethresh 5.0
    maxcore 5000
end

%pal
  nprocs 6
  end
* xyz 0 1
   C       -1.63655         0.92266         3.35114
   C       -1.08766         1.64797         4.37754
   C        0.09823         1.28969         5.04873
   N        1.05696         1.03585         5.62731
   C       -1.69231         2.79124         4.94025
   N       -2.16183         3.69619         5.46850
   C       -1.15110        -0.35506         2.84653
   C       -2.12973        -0.89328         1.97545
   C       -1.96642        -2.09922         1.33950
   C       -0.78053        -2.80522         1.57238
   C        0.19295        -2.25528         2.43948
   C        0.02696        -1.03597         3.08564
   S        1.58482        -3.28689         2.57492
   C        0.84877        -4.42953         1.48269
   C       -0.37545        -4.05898         1.03779
  Br        1.76488        -6.00417         1.03506
   C       -3.27211         0.04115         1.87650
   O       -4.27969        -0.12221         1.22100
   C       -2.87935         1.22152         2.67480
   C       -3.46648         2.45591         2.60054
   C       -4.71132         2.77570         2.01613
   S       -4.82984         4.30425         1.17235
   C       -6.40545         3.91528         0.62897
   C       -6.86056         2.71804         1.09292
   C       -8.21314         2.16964         0.78636
   C       -5.90778         2.06239         1.92553
   C       -6.23354         0.88517         2.68178
   C       -5.73134         0.59319         3.89932
   C       -6.08478        -0.56710         4.64515
   C       -5.52796        -0.87425         5.83721
   C       -5.87766        -2.03879         6.59245
   C       -5.30812        -2.41827         7.74877
   C       -4.21638        -1.64711         8.42794
   C       -5.72826        -3.66673         8.48305
   N       -6.48091        -4.58859         7.67376
   C       -7.49954        -5.35613         8.09070
   C       -7.99694        -5.44340         9.35350
   C       -9.10525        -6.24854         9.68936
   S       -9.99026        -7.23737         8.55527
   C      -11.13638        -7.84035         9.75339
   C      -10.79204        -7.29278        10.99551
   C       -9.69040        -6.41019        10.93734
   O       -9.41675        -5.89308        12.15276
   C      -10.34248        -6.43843        12.99548
   C      -10.31686        -6.09628        14.35784
   N      -10.31209        -5.83496        15.47419
   C      -11.20381        -7.29396        12.35010
   C      -12.12775        -8.78548         9.50062
   C      -12.59587        -9.27067         8.30312
   C      -12.51532        -8.75700         6.96284
   C      -12.48858        -7.42935         6.60329
   C      -12.44240        -6.97240         5.27493
   N      -12.36506        -6.54873         4.20950
   C      -12.60469        -6.38413         7.53972
   N      -12.75745        -5.51276         8.27267
   C      -12.77493        -9.86903         6.05225
   C      -13.23281       -10.97320         6.81373
   C      -13.21091       -10.61442         8.25047
   O      -13.57061       -11.29465         9.18696
   C      -13.60414       -12.16119         6.23506
   C      -13.50563       -12.26813         4.84259
   C      -13.03649       -11.16340         4.09488
   C      -12.67235        -9.95531         4.67866
   S      -12.98315       -11.51866         2.39432
   C      -13.58755       -13.12419         2.70703
   C      -13.81706       -13.38292         4.01567
  Br      -13.85380       -14.30713         1.27516
   H       -2.72766        -2.48638         0.68059
   H        0.79964        -0.65077         3.73023
   H       -0.96860        -4.64314         0.35820
   H       -2.88187         3.31023         2.92584
   H       -6.92211         4.60297        -0.01249
   H       -8.75025         2.83708         0.11789
   H       -8.79149         2.05039         1.70160
   H       -8.12342         1.19431         0.31015
   H       -6.98539         0.23830         2.25192
   H       -5.02319         1.26888         4.36236
   H       -6.82511        -1.22751         4.21184
   H       -4.77351        -0.21522         6.24319
   H       -6.67930        -2.63403         6.17395
   H       -4.43531        -0.58230         8.43722
   H       -3.26795        -1.78852         7.90881
   H       -4.09169        -1.98005         9.45521
   H       -6.34153        -3.37218         9.34039
   H       -4.82823        -4.16217         8.87751
   H       -6.16162        -4.69658         6.72419
   H       -7.95902        -5.95841         7.31702
   H       -7.56902        -4.88998        10.17537
   H      -12.01077        -7.83647        12.79805
   H      -12.52284        -9.28457        10.38079
   H      -13.96024       -12.98420         6.83456
   H      -12.31833        -9.13825         4.07168
   H      -14.18943       -14.32069         4.38576
*
