# ORCA input file
# SCF done       -209.289736810406          0.000779571117
! CAM-B3LYP def2-SVP def2/J RIJCOSX Grid4 TightSCF
%maxcore 5000
%tddft
    Mode sTDDFT
    Ethresh 5.0
    maxcore 5000
end

%pal
  nprocs 6
  end
* xyz 0 1
   C       -7.44202         9.23214        12.69325
   C       -7.21297         9.94356        13.83788
   F       -7.10037        11.27933        13.78980
   C       -7.09352         9.28683        15.07751
   F       -6.87048        10.00949        16.18600
   C       -7.20334         7.92641        15.15627
   C       -7.43882         7.16614        13.99514
   C       -7.56166         7.82937        12.74092
   C       -7.80461         7.08658        11.56112
   C       -7.92205         5.72522        11.63572
   C       -7.79471         5.07081        12.89244
   C       -7.55931         5.75827        14.04643
   C       -7.97193         3.61512        12.70102
   O       -7.91707         2.76334        13.56771
   C       -8.23182         3.43324        11.26076
   C       -8.18446         4.71247        10.61155
   C       -8.35110         4.97633         9.26823
   C       -8.60279         4.02185         8.26443
   N       -8.81219         3.31494         7.38193
   C       -8.28741         6.26492         8.70458
   N       -8.24774         7.28668         8.17995
   C       -8.52038         2.21485        10.66258
   C       -8.58039         0.99765        11.31788
   C       -8.96800        -0.17850        10.68229
   C       -9.12398        -1.44704        11.25925
   C       -9.60477        -2.39964        10.39043
   C       -9.83246        -1.91070         9.10027
   S       -9.40922        -0.22746         8.99016
   C      -10.39448        -2.58073         8.00044
   C      -10.95674        -3.85508         7.95262
   C      -11.53826        -4.15215         6.73421
   C      -11.42648        -3.13195         5.79320
   S      -10.55968        -1.77741         6.46492
   C      -11.98103        -3.08814         4.49956
   C      -11.73672        -2.08997         3.60501
   C      -12.40017        -1.91026         2.37730
   C      -12.12629        -0.93823         1.42217
   C      -13.02579        -0.91745         0.37098
   C      -14.03513        -1.86619         0.48871
   S      -13.80761        -2.83305         1.91792
   C      -15.17966        -2.00354        -0.32486
   C      -15.52925        -1.23221        -1.42725
   C      -16.79436        -1.51006        -1.91390
   C      -17.45899        -2.51044        -1.21396
   S      -16.44769        -3.13068         0.06472
   C      -18.79068        -2.92311        -1.40349
   C      -19.40770        -3.93968        -0.73845
   C      -20.78495        -4.21559        -0.83237
   C      -21.48111        -5.27695        -0.26036
   C      -22.84741        -5.22494        -0.46367
   C      -23.25747        -4.10531        -1.18512
   S      -21.88570        -3.13876        -1.64994
   C      -24.56502        -3.68424        -1.47888
   C      -25.76892        -4.33543        -1.19391
   C      -26.88215        -3.60482        -1.54065
   C      -26.58883        -2.35343        -2.10037
   S      -24.85986        -2.13672        -2.21804
   C      -27.49744        -1.37263        -2.49052
   C      -27.10923        -0.13670        -2.97124
   C      -27.89335         0.94772        -3.33317
   C      -27.25709         2.28290        -3.36872
   O      -26.06977         2.52595        -3.31070
   C      -28.37207         3.24996        -3.44019
   C      -28.33068         4.61242        -3.40496
   C      -29.54372         5.33751        -3.44678
   C      -30.77647         4.62832        -3.52154
   C      -31.98267         5.35507        -3.55510
   C      -31.96558         6.72160        -3.51853
   C      -30.74602         7.42132        -3.44572
   C      -29.55870         6.74477        -3.41057
   F      -30.75806         8.76268        -3.40997
   F      -33.11587         7.41070        -3.55106
   C      -30.78514         3.21336        -3.56482
   C      -29.59881         2.53335        -3.53005
   C      -29.29496         1.09939        -3.58227
   C      -30.18753         0.12847        -3.98505
   C      -29.83723        -1.19345        -4.31679
   N      -29.61569        -2.27385        -4.63979
   C      -31.55397         0.36886        -4.22079
   N      -32.68030         0.49710        -4.40925
   H       -7.53168         9.75068        11.75143
   H       -7.10956         7.43833        16.11374
   H       -7.89489         7.62023        10.62911
   H       -7.46962         5.23697        14.98740
   H       -8.74125         2.21094         9.60221
   H       -8.34984         0.95049        12.37248
   H       -8.89550        -1.62955        12.29401
   H       -9.79415        -3.42250        10.66181
   H      -10.95534        -4.52136         8.79600
   H      -12.03863        -5.07918         6.51688
   H      -12.65869        -3.88939         4.23281
   H      -10.99765        -1.33785         3.85313
   H      -11.29419        -0.26344         1.51520
   H      -12.97312        -0.22324        -0.44747
   H      -14.88117        -0.48116        -1.84021
   H      -17.24333        -1.00004        -2.74741
   H      -19.36355        -2.34647        -2.11959
   H      -18.83015        -4.56887        -0.07298
   H      -20.98451        -6.05635         0.29000
   H      -23.53879        -5.95654        -0.08703
   H      -25.80493        -5.31131        -0.74456
   H      -27.89469        -3.93861        -1.40147
   H      -28.54192        -1.60671        -2.35014
   H      -26.04325         0.07626        -2.98039
   H      -27.38644         5.13178        -3.34346
   H      -32.92603         4.83491        -3.61350
   H      -28.63248         7.29502        -3.35446
   H      -31.73530         2.70667        -3.61638
*
