# ORCA input file
# SCF done       -192.844281197844          0.000839881073
! CAM-B3LYP def2-SVP def2/J RIJCOSX Grid4 TightSCF
%maxcore 5000
%tddft
    Mode sTDDFT
    Ethresh 5.0
    maxcore 5000
end

%pal
  nprocs 6
  end
* xyz 0 1
   C        4.39008        -0.23580        -4.77659
   C        4.19095         1.09282        -5.03311
   F        5.17036         1.97601        -4.80427
   C        2.95785         1.54865        -5.53697
   F        2.79544         2.85305        -5.78933
   C        1.93268         0.67126        -5.76242
   C        2.09997        -0.69869        -5.48538
   C        3.35425        -1.16426        -4.99548
   C        3.55070        -2.53927        -4.72563
   C        2.51298        -3.41512        -4.90076
   C        1.24626        -2.93184        -5.34033
   C        1.03917        -1.61676        -5.65055
   C        0.29870        -4.04799        -5.36123
   O       -0.90777        -3.99849        -5.60067
   C        1.06032        -5.24660        -5.00402
   C        2.42232        -4.86221        -4.70821
   C        3.44409        -5.68283        -4.30704
   C        4.74611        -5.23451        -4.00425
   N        5.81907        -4.92434        -3.73964
   C        3.31565        -7.07662        -4.13930
   N        3.24684        -8.21245        -3.98847
   C        0.47870        -6.49336        -4.98413
   N       -0.82824        -6.62618        -5.23949
   C       -1.56591        -7.76700        -5.24910
   S       -0.85894        -9.32683        -4.96313
   C       -2.44088       -10.03184        -5.03531
   N       -2.54793       -11.41932        -4.86669
   O       -3.66154       -11.90687        -4.90735
   O       -1.50910       -12.03020        -4.69084
   C       -3.44124        -9.12052        -5.25257
   C       -2.95689        -7.81030        -5.39774
   C       -3.79681        -6.64207        -5.58158
   C       -3.46232        -5.58970        -6.34598
   C       -4.10502        -4.30256        -6.42160
   C       -4.76617        -3.66043        -5.44726
   C       -5.07531        -4.21755        -4.09428
   C       -5.16377        -2.22149        -5.64805
   N       -4.23934        -1.32129        -4.97861
   C       -3.05219        -1.66352        -4.46505
   C       -2.14527        -0.78776        -3.93907
   C       -0.94832        -1.22941        -3.36001
   C        0.08121        -0.41968        -2.94465
   C        1.31358        -0.81699        -2.38250
   C        2.18647         0.20758        -2.15988
   C        1.68540         1.47433        -2.52502
   S        0.06320         1.32874        -3.14741
   C        2.32451         2.70186        -2.44193
   C        3.64019         2.96605        -2.01264
   C        3.96877         4.29156        -2.01990
   C        2.92467         5.13931        -2.45184
   S        1.52188         4.19351        -2.87758
   C        2.88181         6.52296        -2.52836
   C        3.92934         7.34194        -2.12934
   C        3.89558         8.72613        -2.12624
   C        4.94422         9.60039        -1.67464
   C        6.16738         9.24014        -1.15147
   C        7.14486        10.15741        -0.72148
   N        7.98501        10.84997        -0.35358
   C        6.61940         7.92186        -0.95401
   N        7.06605         6.88000        -0.75950
   C        4.48056        10.97764        -1.84215
   C        3.17036        10.95053        -2.37677
   C        2.75491         9.54361        -2.57416
   O        1.68347         9.17163        -3.01408
   C        2.45251        12.09019        -2.63916
   C        3.05705        13.32142        -2.36006
   C        4.36652        13.33906        -1.82911
   C        5.09355        12.18377        -1.56413
   S        4.92366        14.96345        -1.55587
   C        3.40734        15.58602        -2.14994
   C        2.52912        14.63066        -2.53441
  Br        3.12563        17.44064        -2.20516
   H        5.34490        -0.56881        -4.40058
   H        0.99162         1.03809        -6.14066
   H        4.51903        -2.86257        -4.37979
   H        0.07903        -1.28008        -6.00967
   H        1.03949        -7.39419        -4.77208
   H       -1.31908        -5.73096        -5.41460
   H       -4.47688        -9.40063        -5.31982
   H       -4.75284        -6.68301        -5.08224
   H       -2.59780        -5.67300        -6.99385
   H       -3.90639        -3.75974        -7.33676
   H       -4.30475        -4.91568        -3.77166
   H       -6.02609        -4.75064        -4.11230
   H       -5.15788        -3.41648        -3.36258
   H       -6.16555        -2.04735        -5.23684
   H       -5.18925        -1.97956        -6.71798
   H       -4.47607        -0.33964        -5.00454
   H       -2.81255        -2.71651        -4.49110
   H       -2.33222         0.27724        -3.97364
   H       -0.81037        -2.29630        -3.24342
   H        1.52416        -1.84986        -2.16629
   H        3.16800         0.08464        -1.73978
   H        4.31257         2.18226        -1.71278
   H        4.93179         4.66762        -1.72558
   H        1.97403         6.98400        -2.88884
   H        4.83189         6.86479        -1.77743
   H        1.45451        12.03565        -3.04519
   H        6.08892        12.25271        -1.15863
   H        1.54902        14.83751        -2.92399
*
