# ORCA input file
# SCF done       -130.241815386169          0.000302100813
! CAM-B3LYP def2-SVP def2/J RIJCOSX Grid4 TightSCF
%maxcore 5000
%tddft
    Mode sTDDFT
    Ethresh 5.0
    maxcore 5000
end

%pal
  nprocs 6
  end
* xyz 0 1
   C        7.08602        -0.53788        -1.11252
   C        6.38214        -1.46543        -1.77366
   C        5.28981        -1.25880        -2.68266
   C        4.76580        -2.39175        -3.19671
   C        5.39211        -3.58766        -2.74279
   S        6.69476        -3.20272        -1.62995
   C        5.07632        -4.87580        -3.08624
   C        4.06863        -5.32359        -3.98187
   C        4.01614        -6.66876        -4.13616
   C        4.98507        -7.38345        -3.37842
   S        5.95475        -6.24995        -2.43185
   C        5.16659        -8.72931        -3.37686
   N        6.10030        -9.35886        -2.61175
   C        6.40892       -10.68074        -2.55819
   S        7.87629       -11.10729        -1.71790
   C        7.64956       -12.76863        -2.16801
   N        8.58504       -13.69733        -1.73057
   O        8.42429       -14.86546        -2.04996
   O        9.51024       -13.27256        -1.05109
   C        6.51624       -12.96303        -2.91928
   C        5.78007       -11.79081        -3.13166
   C        4.51206       -11.79918        -3.85770
   C        3.37899       -11.27202        -3.38014
   C        2.14797       -11.09739        -4.11967
   C        1.64364       -11.83822        -5.11107
   C        2.15101       -13.18353        -5.52234
   C        0.47269       -11.33455        -5.93374
   N        0.29593        -9.90261        -5.91718
   C        1.30437        -9.04164        -6.24631
   C        2.46482        -9.38211        -6.83907
   C        3.54769        -8.48466        -7.11597
   S        5.14198        -9.08431        -6.76528
   C        5.89454        -7.54693        -7.03723
   C        4.95461        -6.62422        -7.47170
   C        3.61408        -7.15767        -7.52862
   C        2.59426        -6.34092        -8.08957
   S        0.97880        -7.00140        -8.40240
   C        2.88385        -5.06236        -8.48104
   C        4.19407        -4.55072        -8.40245
   C        5.21870        -5.31520        -7.93844
   C        7.31797        -7.44370        -6.83873
   C        8.00473        -6.46373        -6.23959
   C        7.40146        -5.26108        -5.58557
   C        9.51541        -6.51111        -6.20714
   N       10.11415        -5.47776        -7.02908
   C        9.93433        -5.51615        -8.39406
   C        9.95166        -4.45875        -9.19727
   H        6.86111         0.50751        -1.22925
   H        7.88930        -0.80200        -0.44952
   H        4.94707        -0.26424        -2.90702
   H        3.94513        -2.42143        -3.89150
   H        3.42019        -4.63232        -4.48938
   H        3.32019        -7.18725        -4.77062
   H        4.55866        -9.34852        -4.01362
   H        6.69713        -8.74706        -2.06500
   H        6.22415       -13.93403        -3.27682
   H        4.54130       -12.26881        -4.82922
   H        3.39510       -10.81058        -2.39917
   H        1.61845       -10.19229        -3.84277
   H        2.80553       -13.10449        -6.39108
   H        1.31414       -13.82278        -5.80113
   H        2.70183       -13.65572        -4.71372
   H       -0.45838       -11.79536        -5.59040
   H        0.62952       -11.65167        -6.97194
   H       -0.39717        -9.54448        -5.28179
   H        1.09592        -8.01007        -6.00110
   H        2.69543       -10.42458        -6.99873
   H        0.58650        -5.97795        -9.16431
   H        2.10925        -4.44092        -8.90790
   H        4.37645        -3.54919        -8.76198
   H        6.23548        -4.96111        -7.96053
   H        7.86985        -8.31606        -7.17349
   H        7.80949        -5.15274        -4.57967
   H        6.32118        -5.34673        -5.52263
   H        7.64103        -4.34978        -6.13458
   H        9.87054        -7.47869        -6.57278
   H        9.87765        -6.37255        -5.18381
   H       10.05549        -4.54764        -6.63637
   H        9.82849        -6.51695        -8.79114
   H       10.05556        -3.45730        -8.81395
   H        9.89182        -4.56624       -10.26340
*
