# ORCA input file
# SCF done       -204.248201449138          0.000883760313
! CAM-B3LYP def2-SVP def2/J RIJCOSX Grid4 TightSCF
%maxcore 5000
%tddft
    Mode sTDDFT
    Ethresh 5.0
    maxcore 5000
end

%pal
  nprocs 6
  end
* xyz 0 1
   C       -1.09501         3.23325         1.41669
   O       -1.36410         4.38141         1.65608
   C        0.23064         2.57937         1.50319
   C        0.08313         1.18562         1.39086
   C        1.19080         0.35411         1.40497
   C        2.44071         0.93696         1.55124
   C        2.60246         2.31531         1.68698
   C        1.48134         3.14851         1.66571
   F        1.64170         4.45975         1.78815
   F        3.82307         2.83501         1.82824
   F        3.52363         0.15916         1.55715
   C       -1.33860         0.87097         1.26921
   C       -1.87956        -0.38597         1.33629
   C       -1.13947        -1.55084         1.62438
   N       -0.61750        -2.52934         1.92215
   C       -3.25591        -0.68774         1.28771
   N       -4.35373        -1.02667         1.29089
   C       -2.05029         2.12135         1.12326
   C       -3.37824         2.29209         0.88121
   C       -3.96030         3.53056         0.51304
   O       -5.29038         3.72798         0.71885
   C       -3.45878         4.63473        -0.15610
   C       -2.27747         5.16313        -0.86442
   O       -1.20785         4.66461        -1.08919
   N       -2.70524         6.40182        -1.32477
   C       -4.04012         6.71107        -1.06208
   O       -4.60091         7.71770        -1.40285
   C       -4.52503         5.53736        -0.32560
   C       -5.65286         4.94730         0.23651
   C       -6.98735         5.38978         0.32850
   C       -7.97138         4.60211         0.85924
   C       -9.32570         4.94053         0.94135
   C      -10.27903         4.06930         1.41972
   C      -11.67875         4.26720         1.49647
   C      -12.37100         3.18849         1.96148
   C      -11.55212         2.08374         2.28581
   S       -9.87405         2.46349         1.99589
   C      -11.92232         0.82961         2.73881
   C      -13.22231         0.31506         2.94478
   C      -13.23605        -0.98994         3.33566
   C      -11.94789        -1.56713         3.46750
   S      -10.71704        -0.38649         3.09115
   C      -11.64732        -2.86299         3.81514
   C      -10.33454        -3.33573         3.93741
   O       -9.28165        -2.48905         3.76041
   C       -9.82777        -4.59757         4.24140
   C      -10.18742        -5.97395         4.59438
   O      -11.25729        -6.51057         4.70564
   N       -8.95048        -6.59445         4.79132
   C       -7.83971        -5.77881         4.61260
   O       -6.69193        -6.10770         4.75255
   C       -8.42573        -4.48242         4.23949
   C       -8.11508        -3.16333         3.95110
   C       -6.86335        -2.51399         3.97338
   C       -6.69841        -1.16602         3.88368
   C       -5.46809        -0.48792         4.03579
   C       -4.30513        -0.89653         4.62770
   C       -3.06808        -0.12653         4.34911
   O       -2.99139         0.95589         3.81148
   C       -1.95807        -0.99713         4.79950
   C       -2.48474        -2.15844         5.39363
   C       -3.94264        -2.02267         5.46369
   C       -4.72369        -2.67401         6.37979
   C       -4.23833        -3.66051         7.26674
   N       -3.89387        -4.45483         8.01880
   C       -6.07774        -2.37103         6.63066
   N       -7.16699        -2.14116         6.90837
   C       -1.65215        -3.18022         5.81238
   C       -0.28345        -3.01770         5.64510
   C        0.25967        -1.85728         5.09476
   C       -0.59053        -0.83648         4.67107
   F       -0.06788         0.27374         4.14408
   F        1.57963        -1.72104         4.96672
   F        0.53773        -3.99212         6.02950
   H        1.12653        -0.71736         1.30912
   H       -4.06241         1.45695         0.94440
   H       -2.09796         7.02507        -1.83828
   H       -7.19489         6.37421        -0.06248
   H       -7.68612         3.62370         1.22657
   H       -9.64931         5.91184         0.59368
   H      -12.13006         5.19606         1.19581
   H      -13.43930         3.15838         2.07793
   H      -14.10423         0.90981         2.78884
   H      -14.12564        -1.56121         3.53159
   H      -12.44099        -3.56736         4.00848
   H       -8.87247        -7.56407         5.06423
   H       -6.01777        -3.17644         4.08853
   H       -7.56282        -0.56029         3.64604
   H       -5.41098         0.50202         3.59407
   H       -2.02025        -4.09706         6.24314
*
