# ORCA input file
# SCF done       -168.881867388559          0.000469241255
! CAM-B3LYP def2-SVP def2/J RIJCOSX Grid4 TightSCF
%maxcore 5000
%tddft
    Mode sTDDFT
    Ethresh 5.0
    maxcore 5000
end

%pal
  nprocs 6
  end
* xyz 0 1
   C       12.35718        -2.89758         8.63921
   C       12.16781        -2.91193         9.99310
   F       13.20782        -3.18493        10.80421
   C       10.92330        -2.65068        10.58056
   C        9.85698        -2.36959         9.77175
   C        9.99612        -2.33898         8.36954
   C       11.26992        -2.61090         7.79161
   C       11.43247        -2.59409         6.38587
   C       10.35822        -2.30316         5.59156
   C        9.09066        -2.01504         6.17501
   C        8.90208        -2.03836         7.52565
   C        8.12630        -1.68987         5.10325
   O        6.94707        -1.43561         5.21643
   C        8.92666        -1.67318         3.85476
   C       10.21640        -2.24380         4.13854
   C       11.04717        -2.86903         3.23801
   C       10.68802        -3.09139         1.89477
   N       10.40003        -3.33551         0.80956
   C       12.29707        -3.42038         3.56902
   N       13.34539        -3.84557         3.77141
   C        8.41212        -1.04768         2.74612
   C        9.06960        -0.47629         1.65296
   S       10.78674        -0.20364         1.60340
   C       10.72706         0.60532         0.07841
   C        9.39857         0.68602        -0.38414
   C        8.46343         0.07976         0.50438
   C        7.09851         0.05812         0.17601
   C        6.69250         0.63344        -0.99673
   F        5.39342         0.62915        -1.32767
   C        7.61787         1.23537        -1.87573
   F        7.17125         1.78550        -3.01602
   C        8.95286         1.26503        -1.58488
   C       11.90112         1.06217        -0.55762
   C       13.15363         0.79402        -0.10680
   C       14.34158         1.21288        -0.76849
   C       15.58646         0.81288        -0.43803
   C       15.87704        -0.11200         0.70232
   C       16.77517         1.27912        -1.24097
   N       17.77827         1.89890        -0.40833
   C       18.85631         1.23903         0.06287
   C       19.64593         1.66238         1.08751
   C       20.78902         0.95790         1.50088
   C       21.60902         1.31713         2.53816
   C       22.74897         0.61716         3.00117
   C       23.37274         1.19671         4.06248
   C       22.76527         2.39619         4.50154
   S       21.36728         2.76244         3.51745
   C       23.16638         3.20684         5.54418
   C       24.25748         3.01440         6.42009
   C       24.39843         3.99399         7.35255
   C       23.42975         5.03048         7.27262
   S       22.32253         4.68951         5.95423
   C       23.38421         6.12166         8.09760
   C       22.47056         7.19816         8.07183
   C       21.39834         7.45616         7.25465
   C       20.73757         8.67041         7.55590
   C       19.62649         9.23895         6.93135
   C       19.14023        10.45368         7.39145
   C       19.74553        11.11792         8.47332
   C       20.84197        10.56864         9.10044
   C       21.33200         9.35437         8.64255
   S       22.69186         8.47934         9.26606
   C       18.01738        11.03928         6.76415
   N       17.10630        11.51487         6.25530
   H       13.32951        -3.10728         8.22145
   H       10.83333        -2.67633        11.65494
   H        8.88784        -2.16426        10.20101
   H       12.40731        -2.80060         5.97263
   H        7.93113        -1.82831         7.94852
   H        7.34098        -0.87791         2.79071
   H        6.37024        -0.40276         0.82264
   H        9.63828         1.72598        -2.27657
   H       11.77264         1.62656        -1.47095
   H       13.25788         0.19859         0.78945
   H       14.21060         1.86634        -1.62200
   H       15.41218         0.23770         1.62252
   H       16.94713        -0.19988         0.87334
   H       15.48318        -1.10623         0.49212
   H       16.45564         1.99601        -2.00356
   H       17.23812         0.42449        -1.74504
   H       17.47646         2.70970         0.11421
   H       19.10864         0.33173        -0.47158
   H       19.39281         2.56978         1.61905
   H       21.04215         0.04927         0.96934
   H       23.06929        -0.29717         2.53303
   H       24.25037         0.79932         4.53939
   H       24.90550         2.16011         6.34025
   H       25.17023         4.01474         8.10150
   H       24.14860         6.17140         8.86231
   H       21.08418         6.80567         6.45998
   H       19.15485         8.73691         6.09992
   H       19.34115        12.06209         8.80504
   H       21.31448        11.06938         9.93104
*
