# ORCA input file
# SCF done       -178.923369078085          0.000384749110
! CAM-B3LYP def2-SVP def2/J RIJCOSX Grid4 TightSCF
%maxcore 5000
%tddft
    Mode sTDDFT
    Ethresh 5.0
    maxcore 5000
end

%pal
  nprocs 6
  end
* xyz 0 1
   C       -6.44547         2.56048         1.33152
   C       -6.70454         1.31403         1.82404
   C       -7.39138         1.07254         3.03077
   N       -7.90516         0.83232         4.02885
   C       -6.36184         0.11260         1.16151
   N       -6.20476        -0.90034         0.64482
   C       -7.00447         3.81708         1.79659
   C       -6.71471         4.81824         0.83641
   C       -7.14935         6.11492         0.97369
   C       -7.89516         6.43908         2.11109
   C       -8.17210         5.43221         3.06759
   C       -7.74069         4.12009         2.92786
   S       -9.10578         6.05238         4.39578
   C       -9.11512         7.63190         3.65686
   C       -8.45233         7.69500         2.47802
  Br       -9.99865         9.04894         4.51090
   C       -5.91772         4.24478        -0.27415
   O       -5.59054         4.83054        -1.27843
   C       -5.62105         2.84840         0.15842
   C       -4.60003         2.04345        -0.20258
   C       -3.63326         2.19950        -1.26985
   N       -2.52257         1.46782        -1.11749
   C       -1.61240         1.56030        -2.06931
   C       -1.78814         2.35736        -3.18722
   C       -2.99325         3.06979        -3.27329
   N       -3.90159         2.97693        -2.30209
   C       -3.32900         3.87845        -4.42246
   C       -4.43694         4.63412        -4.44499
   C       -4.90007         5.40595        -5.57265
   C       -5.37784         6.69368        -5.47314
   C       -5.55303         7.55499        -4.27718
   N       -5.63857         7.14769        -6.73694
   C       -5.36546         6.18966        -7.65564
   C       -5.60793         6.40117        -9.10599
   C       -4.91167         5.06053        -6.97487
   C       -4.66894         3.80212        -7.59653
   C       -4.59241         2.61210        -6.94027
   C       -4.34837         1.36551        -7.53591
   C       -4.16694         0.22015        -6.79735
   C       -3.95378        -1.09688        -7.26306
   C       -3.78608        -2.02100        -6.27381
   C       -3.83892        -1.47988        -4.97058
   S       -4.13544         0.23604        -5.03377
   C       -3.67331        -2.14368        -3.76368
   C       -3.49755        -3.52398        -3.55169
   C       -3.36507        -3.86165        -2.23420
   C       -3.41359        -2.76434        -1.34963
   S       -3.65132        -1.28404        -2.23667
   C       -3.29586        -2.82452         0.03073
   C       -3.33191        -1.71401         0.85491
   C       -3.30589        -1.69936         2.24172
   C       -2.93803        -2.71813         3.18414
   C       -2.03368        -3.73925         2.99330
   C       -1.68724        -4.67670         3.98351
   N       -1.37878        -5.47937         4.74599
   C       -1.25820        -3.90509         1.82987
   N       -0.56362        -4.06980         0.92940
   C       -3.52538        -2.35660         4.47522
   C       -4.07357        -1.05516         4.36491
   C       -3.88398        -0.57449         2.98167
   O       -4.20210         0.52303         2.54885
   C       -4.69657        -0.42395         5.41187
   C       -4.78569        -1.11310         6.62723
   C       -4.23509        -2.41028         6.72698
   C       -3.60080        -3.04889         5.66585
   S       -4.46049        -3.07944         8.31508
   C       -5.28020        -1.62385         8.81523
   C       -5.38168        -0.68539         7.84586
  Br       -5.92128        -1.48157        10.57238
   H       -6.92145         6.85870         0.22609
   H       -7.97219         3.38354         3.67951
   H       -8.35885         8.58985         1.89022
   H       -4.39131         1.18915         0.42961
   H       -0.72022         0.96308        -1.92695
   H       -1.04448         2.41855        -3.96545
   H       -2.66249         3.81952        -5.27214
   H       -5.00996         4.69986        -3.52877
   H       -5.62356         6.93613        -3.38669
   H       -6.45540         8.15858        -4.36806
   H       -4.70359         8.22866        -4.15398
   H       -5.98726         8.06857        -6.95233
   H       -5.74979         7.45905        -9.31679
   H       -6.49897         5.86376        -9.43323
   H       -4.76552         6.04000        -9.69290
   H       -4.58427         3.81031        -8.67683
   H       -4.72654         2.60285        -5.86878
   H       -4.28337         1.29116        -8.61387
   H       -3.93478        -1.32359        -8.31475
   H       -3.61432        -3.06795        -6.44710
   H       -3.48199        -4.23111        -4.36158
   H       -3.22024        -4.86459        -1.87434
   H       -3.22082        -3.81472         0.45581
   H       -3.49102        -0.75377         0.37758
   H       -5.11141         0.56573         5.30218
   H       -3.20532        -4.04371         5.78744
   H       -5.85985         0.26789         7.97817
*
