# ORCA input file
# SCF done       -167.632450988422          0.000598057143
! CAM-B3LYP def2-SVP def2/J RIJCOSX Grid4 TightSCF
%maxcore 5000
%tddft
    Mode sTDDFT
    Ethresh 5.0
    maxcore 5000
end

%pal
  nprocs 6
  end
* xyz 0 1
   C       -3.07062        -1.00841         1.78952
   C       -1.93284        -0.68962         2.48324
   C       -1.07963        -1.63943         3.08247
   N       -0.34211        -2.36699         3.57683
   C       -1.47287         0.62459         2.70851
   N       -1.04652         1.66673         2.93414
   C       -3.61980        -2.34590         1.61291
   C       -4.87123        -2.24173         0.95741
   C       -5.64152        -3.33758         0.65372
   C       -5.15467        -4.59773         1.01602
   C       -3.90252        -4.69226         1.66928
   C       -3.12308        -3.58371         1.97567
   S       -3.48836        -6.34235         2.02065
   C       -4.98169        -6.87580         1.29604
   C       -5.75313        -5.87166         0.81578
  Br       -5.38055        -8.70687         1.23866
   C       -5.16588        -0.82552         0.67888
   O       -6.12511        -0.38928         0.07469
   C       -3.99563        -0.06977         1.18796
   C       -3.77194         1.25676         0.95816
   C       -4.73554         2.19869         0.52822
   S       -4.21651         3.45479        -0.55930
   C       -5.79529         4.11424        -0.70575
   C       -6.70822         3.40663         0.08080
   C       -6.09760         2.33820         0.81178
   C       -6.89294         1.62727         1.75203
   C       -6.33904         0.71008         2.66971
   N       -5.92881        -0.01958         3.45463
   C       -8.24668         1.88046         1.82274
   C       -8.85334         2.83709         0.99437
   C       -8.10377         3.60636         0.14989
   C       -6.02599         5.22834        -1.59665
   C       -6.66930         6.36402        -1.30833
   C       -7.22154         6.72270         0.03424
   C       -6.84893         7.42239        -2.37558
   N       -8.23299         7.80093        -2.52441
   C       -9.16356         6.98608        -3.05483
   C      -10.50073         7.23587        -3.00418
   C      -11.47443         6.43413        -3.61933
   C      -12.81721         6.71448        -3.59041
   C      -13.86767         6.01939        -4.23333
   C      -15.09626         6.58811        -4.07421
   C      -15.08365         7.75928        -3.28440
   S      -13.46932         8.11010        -2.73458
   C      -16.13474         8.60600        -2.97684
   C      -17.46208         8.59514        -3.44472
   C      -18.19208         9.67249        -3.03304
   C      -17.47954        10.59525        -2.23143
   S      -15.86456        10.00677        -1.96164
   C      -18.02098        11.74466        -1.67279
   C      -17.43133        12.71899        -0.87965
   C      -16.10857        13.04441        -0.60952
   C      -15.82300        13.75196         0.66716
   O      -16.63336        14.20980         1.44401
   C      -14.35421        13.73322         0.78998
   C      -13.41666        14.10591         1.69311
   S      -11.82939        13.73600         1.11600
   C      -12.44447        13.08224        -0.36508
   C      -13.79915        13.14573        -0.39300
   C      -14.88265        12.81528        -1.30511
   C      -14.69387        12.50165        -2.63873
   C      -15.72261        12.49473        -3.59361
   N      -16.54284        12.50232        -4.39858
   C      -13.41301        12.24004        -3.15106
   N      -12.37474        11.98179        -3.57195
   H       -6.59166        -3.22620         0.15524
   H       -2.17441        -3.70678         2.47095
   H       -6.70445        -6.02151         0.33876
   H       -2.75908         1.63325         1.03770
   H       -8.84786         1.32813         2.52968
   H       -9.92222         2.97414         1.05029
   H       -8.56052         4.35836        -0.47331
   H       -5.56318         5.12731        -2.57172
   H       -6.91519         6.00933         0.79289
   H       -8.31067         6.76042         0.01517
   H       -6.86419         7.71197         0.31970
   H       -6.47643         7.05086        -3.33476
   H       -6.27941         8.31713        -2.10975
   H       -8.56646         8.59344        -1.99637
   H       -8.78024         6.11138        -3.56330
   H      -10.84660         8.11968        -2.48392
   H      -11.15420         5.55649        -4.16540
   H      -13.68069         5.12906        -4.80801
   H      -16.00460         6.20448        -4.50250
   H      -17.83545         7.81915        -4.08841
   H      -19.21619         9.85120        -3.30786
   H      -19.09052        11.84128        -1.81701
   H      -18.12787        13.30936        -0.28954
   H      -13.54075        14.57098         2.65027
   H      -11.76077        12.69875        -1.09511
*
