# ORCA input file
# SCF done       -186.676174765851          0.000889000717
! CAM-B3LYP def2-SVP def2/J RIJCOSX Grid4 TightSCF
%maxcore 5000
%tddft
    Mode sTDDFT
    Ethresh 5.0
    maxcore 5000
end

%pal
  nprocs 6
  end
* xyz 0 1
   C       -6.90116         8.20550         5.45880
   C       -7.54646         7.74704         6.57796
   C       -7.47879         8.36607         7.84257
   N       -7.46084         8.82844         8.89326
   C       -8.36332         6.59834         6.60046
   N       -9.03611         5.67021         6.66115
   C       -6.04934         9.39097         5.38743
   C       -5.57620         9.53925         4.05775
   C       -4.74394        10.56363         3.67629
   C       -4.35873        11.48832         4.65234
   C       -4.83677        11.33462         5.97538
   C       -5.67892        10.29745         6.36112
   S       -4.23753        12.58527         7.02022
   C       -3.36508        13.28950         5.68512
   C       -3.51314        12.62262         4.51553
  Br       -2.33834        14.83459         5.95944
   C       -6.11700         8.44867         3.23893
   O       -5.93058         8.25057         2.04103
   C       -6.93118         7.62594         4.13646
   C       -7.57064         6.49435         3.68716
   N       -7.46513         6.13645         2.40397
   C       -8.00371         5.04772         1.80100
   S       -8.93085         3.87657         2.68578
   C       -9.12589         2.96702         1.22367
   N       -9.86772         1.77805         1.28222
   O       -9.99902         1.14649         0.25098
   O      -10.32605         1.46970         2.36694
   C       -8.51800         3.53065         0.13516
   C       -7.86141         4.74012         0.44020
   C       -7.15651         5.57377        -0.49153
   C       -6.89630         5.25111        -1.77534
   C       -6.22142         6.10747        -2.68951
   S       -5.74922         7.72616        -2.23537
   C       -5.04142         8.00301        -3.79479
   C       -5.18502         6.91270        -4.61578
   C       -5.85545         5.83550        -3.99276
   C       -6.08718         4.53103        -4.68970
   C       -5.91593         4.67005        -6.19935
   C       -4.62903         5.42314        -6.53267
   O       -4.43456         5.33042        -7.92807
   C       -3.16854         5.73311        -8.38233
   C       -4.76120         6.87422        -6.05050
   C       -4.45364         9.30228        -4.08278
   C       -3.17870         9.53173        -4.39003
   C       -2.11554         8.47941        -4.42127
   C       -2.67033        10.92033        -4.70852
   N       -3.69719        11.91486        -4.88984
   C       -4.39559        12.04441        -6.02481
   C       -4.47865        11.10689        -7.01419
   C       -5.18647        11.28703        -8.21422
   C       -5.58650        12.43987        -8.84378
   C       -5.17582        13.81675        -8.74757
   C       -3.95606        14.29951        -8.32819
   C       -3.59075        15.65841        -8.35718
   N       -3.24424        16.75349        -8.33079
   C       -2.90261        13.48994        -7.87308
   N       -2.00613        12.87403        -7.49999
   C       -6.18438        14.62457        -9.43324
   C       -7.07450        13.75728       -10.11236
   C       -6.68921        12.35780        -9.82963
   O       -7.19429        11.35064       -10.27656
   C       -8.11657        14.21951       -10.87688
   C       -8.29714        15.60466       -10.96496
   C       -7.41256        16.46171       -10.27013
   C       -6.35120        15.99366        -9.50412
   S       -7.82699        18.13359       -10.50309
   C       -9.16165        17.66409       -11.52214
   C       -9.29326        16.32590       -11.67925
  Br      -10.25777        18.98601       -12.27796
   H       -4.40024        10.64868         2.65741
   H       -6.01443        10.22324         7.38186
   H       -3.04485        12.91707         3.59424
   H       -8.16550         5.86401         4.33548
   H       -6.88068         6.78250         1.84065
   H       -8.56493         3.07941        -0.83839
   H       -6.81302         6.53516        -0.13316
   H       -7.19516         4.29065        -2.16905
   H       -7.08832         4.15568        -4.46866
   H       -5.36995         3.79720        -4.30611
   H       -6.75550         5.21852        -6.62813
   H       -5.88477         3.68668        -6.66803
   H       -3.77823         4.94694        -6.01232
   H       -3.11137         5.43593        -9.42762
   H       -2.36808         5.23646        -7.81955
   H       -3.02976         6.81813        -8.31395
   H       -5.51869         7.36969        -6.66686
   H       -3.82347         7.41248        -6.18317
   H       -5.13999        10.13689        -4.00259
   H       -2.49856         7.52663        -4.06741
   H       -1.28302         8.77977        -3.78588
   H       -1.72220         8.35421        -5.43019
   H       -2.06942        10.87807        -5.62618
   H       -2.01214        11.25027        -3.89967
   H       -3.78689        12.62836        -4.18618
   H       -4.98471        12.94976        -6.10161
   H       -4.04806        10.13235        -6.84508
   H       -5.52871        10.38175        -8.70713
   H       -8.77308        13.53601       -11.39201
   H       -5.70659        16.68640        -8.98890
   H      -10.06075        15.86392       -12.27298
*
