# ORCA input file
# SCF done       -171.306887552449          0.000518824610
! CAM-B3LYP def2-SVP def2/J RIJCOSX Grid4 TightSCF
%maxcore 5000
%tddft
    Mode sTDDFT
    Ethresh 5.0
    maxcore 5000
end

%pal
  nprocs 6
  end
* xyz 0 1
   C        0.41773       -10.01185       -10.26943
   C       -0.02070        -9.82302       -11.55104
   F        0.46657       -10.57555       -12.54680
   C       -0.98605        -8.83971       -11.84014
   F       -1.39974        -8.67536       -13.10482
   C       -1.49973        -8.05627       -10.84376
   C       -1.06753        -8.22624        -9.51507
   C       -0.09250        -9.22226        -9.22074
   C        0.35339        -9.41469        -7.89169
   C       -0.15932        -8.63558        -6.88976
   C       -1.13164        -7.63826        -7.19398
   C       -1.58122        -7.43011        -8.46607
   C       -1.50872        -6.95484        -5.95143
   O       -2.31327        -6.03127        -5.82183
   C       -0.73499        -7.58576        -4.88366
   C        0.10305        -8.61291        -5.45214
   C        0.98917        -9.42349        -4.78663
   C        1.78100       -10.40874        -5.40807
   N        2.45042       -11.22573        -5.85923
   C        1.21983        -9.36765        -3.39818
   N        1.43826        -9.35159        -2.27083
   C       -0.86282        -7.18920        -3.57026
   N       -1.70955        -6.20222        -3.25818
   C       -1.96351        -5.67776        -2.03589
   S       -1.16934        -6.26014        -0.60505
   C       -2.04217        -5.08344         0.32388
   N       -1.81559        -5.03631         1.70216
   O       -2.42942        -4.20327         2.34759
   O       -1.01539        -5.83687         2.15769
   C       -2.88408        -4.30236        -0.42377
   C       -2.86000        -4.62636        -1.79214
   C       -3.61836        -3.98366        -2.83576
   C       -4.47099        -2.96214        -2.64389
   C       -5.22582        -2.26761        -3.65723
   C       -4.92014        -2.08089        -4.94904
   C       -3.68016        -2.57718        -5.62206
   C       -5.82223        -1.27238        -5.85969
   N       -6.90836        -0.60282        -5.19799
   C       -8.20918        -0.96794        -5.20977
   C       -8.80056        -1.90188        -6.00291
   C      -10.18309        -2.15487        -5.95710
   C      -10.85145        -3.00766        -6.79674
   C      -12.23693        -3.29310        -6.79981
   C      -12.63316        -4.14782        -7.78382
   C      -11.58426        -4.58593        -8.62178
   S      -10.06561        -3.89497        -8.10197
   C      -11.67845        -5.41440        -9.72630
   C      -12.83987        -6.01989       -10.25316
   C      -12.62569        -6.75828       -11.37878
   C      -11.28277        -6.77886       -11.80773
   S      -10.29011        -5.82702       -10.70838
   C      -10.69548        -7.37607       -12.89825
   C      -11.25147        -8.16309       -13.91784
   C      -12.52290        -8.70080       -14.20261
   C      -12.53433        -9.45944       -15.42976
   N      -13.66329       -10.05780       -15.88016
   C      -14.71700        -9.91703       -15.13385
   C      -14.72301        -9.18653       -13.91149
   C      -16.00060        -9.11907       -13.12684
   C      -15.91654        -8.29338       -11.85166
   N      -13.64300        -8.58834       -13.46619
   C      -11.31329        -9.50392       -16.06155
   S      -10.13654        -8.63755       -15.18423
   H        1.15728       -10.77012       -10.06480
   H       -2.23925        -7.30807       -11.08258
   H        1.09058       -10.17755        -7.70130
   H       -2.32004        -6.67058        -8.67222
   H       -0.30330        -7.64475        -2.76445
   H       -2.20900        -5.81735        -4.08104
   H       -3.48526        -3.53298         0.02348
   H       -3.50256        -4.38727        -3.82822
   H       -4.65305        -2.61243        -1.63634
   H       -6.13410        -1.81233        -3.28102
   H       -2.83439        -2.55175        -4.93801
   H       -3.44667        -1.96642        -6.49172
   H       -3.80524        -3.60388        -5.96532
   H       -6.22595        -1.93254        -6.63057
   H       -5.20959        -0.51533        -6.36719
   H       -6.63093         0.09610        -4.52713
   H       -8.83234        -0.39871        -4.53144
   H       -8.22609        -2.47578        -6.71464
   H      -10.77349        -1.63076        -5.21642
   H      -12.89884        -2.85232        -6.07498
   H      -13.64869        -4.46701        -7.93407
   H      -13.80302        -5.89365        -9.79145
   H      -13.37046        -7.29770       -11.93382
   H       -9.63108        -7.20441       -13.00895
   H      -15.62380       -10.39282       -15.48519
   H      -16.29537       -10.14491       -12.88260
   H      -16.77872        -8.71310       -13.78108
   H      -15.14593        -8.68792       -11.19474
   H      -16.86953        -8.32277       -11.32823
   H      -15.68136        -7.25807       -12.08438
   H      -11.06694        -9.99796       -16.97856
*
