# ORCA input file
# SCF done       -191.054394666446          0.000888534758
! CAM-B3LYP def2-SVP def2/J RIJCOSX Grid4 TightSCF
%maxcore 5000
%tddft
    Mode sTDDFT
    Ethresh 5.0
    maxcore 5000
end

%pal
  nprocs 6
  end
* xyz 0 1
   C       -2.89223        -2.18860        -2.51961
   C       -4.03646        -1.57638        -2.10536
   C       -3.84404        -0.19154        -1.94032
   C       -2.53647         0.20334        -2.23653
   S       -1.55655        -1.10608        -2.72005
   C       -2.43767         1.61529        -2.06176
   C       -3.68847         2.10237        -1.66142
   C       -4.61372         0.98233        -1.56320
   C       -5.92652         1.02897        -1.19599
   C       -6.56538         2.23857        -0.85149
   N       -7.09021         3.21921        -0.57319
   C       -6.73177        -0.12738        -1.12939
   N       -7.39134        -1.06336        -1.06956
   C       -3.69767         3.49170        -1.49268
   C       -2.47907         4.05818        -1.79132
   S       -1.28144         2.84848        -2.23497
   C       -2.12442         5.46002        -1.71714
   C       -2.64897         6.22344        -0.66295
   C       -2.24463         7.52957        -0.53106
   C       -1.33143         8.09949        -1.42809
   C       -1.08877         9.50076        -1.00790
   O       -0.37992        10.33803        -1.50525
   N       -1.87353         9.68583         0.12081
   C       -2.59420         8.55617         0.48174
   O       -3.33611         8.48024         1.42661
   C       -1.89455        10.91784         0.88058
   C       -0.79397        10.93300         1.93552
   C       -0.82772         7.37915        -2.48297
   C       -1.23163         6.04516        -2.64817
   C       -0.79386         5.28166        -3.79536
   C        0.39281         5.44006        -4.41697
   C        0.89069         4.66131        -5.50960
   C        0.36347         3.43733        -5.98747
   C        0.98757         2.69448        -7.05220
   N        0.44306         1.52911        -7.45869
   C       -0.62048         1.08560        -6.88130
   C       -1.22601         1.80268        -5.81607
   N       -0.74456         2.92610        -5.40236
   F       -2.31447         1.33753        -5.19630
   F       -1.13560        -0.06469        -7.30212
   C        2.16779         3.14422        -7.68937
   C        2.68636         4.37063        -7.22946
   C        2.06549         5.10259        -6.15616
   N        2.73552         6.22575        -5.87718
   S        3.99509         6.34487        -6.85458
   N        3.77586         4.99152        -7.68483
   C        2.82612         2.40941        -8.71484
   N        2.45651         1.24544        -9.16124
   C        3.28142         0.79695       -10.09783
   C        4.37160         1.65008       -10.42231
   S        4.30737         3.07593        -9.46833
   N        5.20004         1.20183       -11.34348
   C        4.83341         0.01726       -11.78783
   S        3.35122        -0.63220       -11.03939
   C        5.63486        -0.60277       -12.76808
   C        5.48400        -1.80318       -13.39872
   C        6.37896        -2.36035       -14.40324
   C        7.56836        -1.83513       -14.83336
   C        8.39150        -2.43928       -15.80872
   N        9.10746        -2.87545       -16.59243
   C        8.16855        -0.64184       -14.37544
   N        8.74093         0.30515       -14.06901
   C        5.79477        -3.61454       -14.86345
   C        4.59487        -3.85175       -14.14506
   C        4.36583        -2.74642       -13.20536
   O        3.43494        -2.63692       -12.42966
   C        3.81308        -4.96365       -14.34954
   C        4.23166        -5.88676       -15.31192
   C        5.42857        -5.64125       -16.02841
   C        6.22006        -4.51789       -15.81952
   S        5.74967        -6.90911       -17.16779
   C        4.31150        -7.73987       -16.68616
   C        3.61656        -7.10426       -15.71735
   H       -2.74291        -3.22895        -2.72879
   H       -4.96169        -2.09491        -1.93249
   H       -4.56041         4.06763        -1.21077
   H       -3.33262         5.78398         0.04636
   H       -2.87687        10.99208         1.35286
   H       -1.75626        11.74065         0.17512
   H       -0.92665        10.10589         2.62924
   H       -0.83067        11.86520         2.49175
   H        0.18119        10.84604         1.46179
   H       -0.15903         7.84114        -3.19168
   H       -1.47571         4.53501        -4.17090
   H        1.08440         6.20197        -4.08162
   H        6.48841         0.01209       -13.02716
   H        2.90677        -5.11337       -13.78368
   H        7.12103        -4.37855       -16.39280
   H        4.07111        -8.66841       -17.16651
   H        2.69905        -7.47136       -15.29454
*
