# ORCA input file
# SCF done       -150.888633328028          0.000849056094
! CAM-B3LYP def2-SVP def2/J RIJCOSX Grid4 TightSCF
%maxcore 5000
%tddft
    Mode sTDDFT
    Ethresh 5.0
    maxcore 5000
end

%pal
  nprocs 6
  end
* xyz 0 1
   C        6.33088         2.10347         6.31808
   C        5.21221         2.42156         7.02363
   C        4.25122         3.05210         6.20743
   C        4.68735         3.19201         4.88276
   S        6.25378         2.55792         4.64528
   C        3.66559         3.83727         4.13489
   C        2.58696         4.10368         4.98971
   C        2.92482         3.61893         6.32572
   C        2.15744         3.69094         7.45410
   C        0.88540         4.28896         7.48612
   N       -0.14983         4.78202         7.54844
   C        2.60069         3.17310         8.69029
   N        2.95582         2.74904         9.69468
   C        1.52211         4.73421         4.34691
   C        1.78491         4.95828         3.00418
   S        3.37338         4.36727         2.53901
   C        0.94866         5.57657         2.02568
   C       -0.25549         6.16106         2.33377
   C       -1.10630         6.77290         1.41147
   C       -0.69245         6.95606         0.01242
   C        0.44443         6.45116        -0.51261
   S        1.57883         5.52903         0.38339
   C       -1.71477         7.74219        -0.58657
   C       -2.70128         8.02445         0.35883
   C       -3.75228         8.79675        -0.18311
   C       -3.53897         9.07731        -1.49522
   S       -2.06719         8.41785        -2.12671
   C       -2.35136         7.39947         1.60677
   C       -3.16371         7.44165         2.77064
   C       -3.10538         6.54756         3.78652
   C       -3.83675         6.58749         5.01398
   C       -4.76754         7.54647         5.38569
   C       -5.40563         7.50507         6.62242
   F       -6.27950         8.50750         6.86862
   C       -5.17488         6.55190         7.60490
   C       -4.20867         5.57385         7.26426
   C       -3.56706         5.58021         5.98001
   N       -2.70930         4.56877         5.84411
   S       -2.70207         3.71051         7.19915
   N       -3.79510         4.54985         8.01558
   C       -5.85103         6.53363         8.89161
   C       -7.17485         6.95858         9.06758
   N       -7.77777         6.93304        10.23680
   C       -7.07837         6.47170        11.26879
   N       -5.82181         6.03170        11.21829
   C       -5.21868         6.06167        10.05252
   C       -7.71825         6.43756        12.55908
   S       -9.30111         7.07332        12.81849
   C       -9.25194         6.66935        14.50339
   C       -8.04460         6.06454        14.83706
   C       -7.18448         5.93904        13.71970
   N       -5.86968         5.32217        13.79569
   O       -5.81459         4.14819        13.53094
   O       -4.96504         6.02460        14.16702
   C       -7.67222         5.60525        16.11416
   N       -7.33416         5.20755        17.13495
   C      -10.39285         6.98458        15.32056
   C      -10.51093         6.75290        16.62674
   H        7.21859         1.62100         6.67486
   H        5.08852         2.21354         8.07055
   H        0.60047         5.00460         4.82881
   H       -0.53836         6.17415         3.37451
   H        0.71774         6.58424        -1.54746
   H       -4.61805         9.12929         0.36017
   H       -4.16557         9.64358        -2.15626
   H       -3.89324         8.24061         2.79927
   H       -2.46094         5.68582         3.70088
   H       -5.02416         8.35651         4.72219
   H       -7.77886         7.31306         8.24408
   H       -4.19916         5.70564        10.03420
   H      -11.20403         7.45353        14.77875
   H       -9.73120         6.29009        17.20512
   H      -11.40786         7.02544        17.15450
*
