# ORCA input file
# SCF done       -204.432655171907          0.000852282738
! CAM-B3LYP def2-SVP def2/J RIJCOSX Grid4 TightSCF
%maxcore 5000
%tddft
    Mode sTDDFT
    Ethresh 5.0
    maxcore 5000
end

%pal
  nprocs 6
  end
* xyz 0 1
   C       -4.63399        -2.07445         4.49253
   O       -4.95387        -3.24961         4.46034
   C       -4.59870        -1.21079         5.68779
   C       -4.19488         0.08374         5.31481
   C       -4.08386         1.06853         6.28610
   C       -4.37668         0.74544         7.60265
   C       -4.77575        -0.53983         7.94645
   C       -4.89421        -1.54297         6.99348
  Br       -5.16553        -0.93384         9.76249
   C       -3.96219         0.10789         3.87140
   C       -3.61413         1.21682         3.14707
   C       -3.40942         2.49555         3.70953
   N       -3.22927         3.55825         4.10339
   C       -3.42650         1.26264         1.74872
   N       -3.26242         1.38499         0.61887
   C       -4.20095        -1.23503         3.37212
   C       -4.00938        -1.66468         2.08332
   C       -4.21367        -2.92659         1.50629
   C       -3.91724        -3.17505         0.15944
   C       -4.20307        -4.47264        -0.21508
   C       -4.73670        -5.23369         0.85429
   S       -4.86294        -4.35827         2.30853
   C       -5.00165        -6.53692         0.37006
   C       -4.64241        -6.60562        -0.98880
   C       -4.12317        -5.31134        -1.40080
   C       -3.65303        -4.96854        -2.63368
   C       -3.62808        -5.88833        -3.70366
   N       -3.60999        -6.63990        -4.56926
   C       -3.15440        -3.67932        -2.91926
   N       -2.74388        -2.63584        -3.15623
   C       -4.87275        -7.85950        -1.55023
   C       -5.40514        -8.74626        -0.62991
   S       -5.62399        -8.01812         0.95343
   C       -5.75695       -10.10187        -0.84823
   C       -6.28352       -10.99583         0.06722
   C       -6.49648       -12.25269        -0.49633
   C       -6.12974       -12.31374        -1.85260
   S       -5.52546       -10.82696        -2.43338
   C       -6.37054       -13.62731        -2.32757
   C       -6.88824       -14.39804        -1.27147
   C       -6.98919       -13.55894        -0.08731
   C       -7.44740       -13.92107         1.14450
   C       -7.89945       -15.22955         1.41891
   N       -8.26400       -16.29392         1.63910
   C       -7.49770       -13.01048         2.22155
   N       -7.53628       -12.26892         3.09485
   C       -7.14522       -15.71776        -1.63825
   C       -6.82847       -15.95650        -2.96386
   S       -6.20639       -14.52373        -3.77096
   C       -6.94004       -17.17980        -3.67097
   C       -6.63799       -17.41416        -5.00174
   C       -6.84602       -18.74560        -5.35446
   C       -7.31057       -19.53117        -4.28379
   S       -7.49614       -18.62706        -2.84606
   C       -7.47962       -20.86258        -4.73581
   C       -7.11656       -20.91686        -6.09825
   C       -6.72294       -19.58885        -6.53369
   C       -6.35355       -19.21678        -7.79255
   C       -6.30717       -20.15193        -8.84850
   N       -6.27178       -20.92769        -9.69217
   C       -5.99953       -17.88837        -8.10913
   N       -5.71136       -16.80614        -8.35378
   C       -7.25989       -22.18313        -6.64632
   C       -7.73498       -23.10515        -5.72315
   S       -7.97457       -22.37527        -4.13787
   C       -7.97424       -24.48478        -5.89078
   C       -8.12146       -25.19350        -7.04582
   C       -7.91921       -26.66909        -7.00503
   O       -7.85273       -27.36352        -6.01921
   C       -7.76251       -27.07339        -8.41918
   C       -7.99050       -25.96263        -9.25237
   C       -8.36548       -24.81848        -8.42304
   C       -9.05983       -23.72539        -8.87083
   C       -9.38371       -23.50077       -10.22618
   N       -9.67719       -23.27386       -11.31159
   C       -9.61712       -22.74614        -8.02538
   N      -10.10797       -21.93960        -7.37200
   C       -7.85557       -26.09212       -10.62648
   C       -7.50829       -27.32948       -11.14695
   C       -7.30580       -28.41883       -10.30864
   C       -7.42574       -28.31026        -8.92917
  Br       -6.84411       -30.09609       -11.06934
   H       -3.77482         2.07205         6.04517
   H       -4.29341         1.50012         8.36953
   H       -5.20285        -2.54357         7.25357
   H       -3.63153        -0.93613         1.37614
   H       -3.51271        -2.41596        -0.48667
   H       -4.67007        -8.13033        -2.57092
   H       -6.49251       -10.72896         1.08767
   H       -7.54011       -16.47761        -0.98793
   H       -6.28459       -16.64455        -5.66446
   H       -6.98913       -22.44756        -7.65207
   H       -7.97203       -25.08580        -4.98634
   H       -7.99921       -25.25501       -11.29009
   H       -7.39342       -27.44947       -12.21322
   H       -7.26330       -29.15287        -8.27520
*
