# ORCA input file
# SCF done       -224.105822863118          0.000994741937
! CAM-B3LYP def2-SVP def2/J RIJCOSX Grid4 TightSCF
%maxcore 5000
%tddft
    Mode sTDDFT
    Ethresh 5.0
    maxcore 5000
end

%pal
  nprocs 6
  end
* xyz 0 1
   C       -0.19174        -0.71864         1.73461
   C       -0.61471        -0.37041         3.01884
   C       -1.47276         0.86558         3.10200
   O       -2.02604         1.29160         2.12732
   O       -1.58631         1.48798         4.27722
   C       -0.26435        -1.17747         4.11558
   C       -0.66483        -0.89987         5.44322
   N       -0.94948        -0.71800         6.54042
   C        0.50869        -2.33152         3.93031
   C        0.91728        -2.65173         2.65695
   C        0.58111        -1.85202         1.54975
   C        1.15115        -2.45795         0.34622
   C        0.99351        -1.99354        -0.93354
   C        0.32750        -0.79478        -1.27107
   N       -0.17779         0.17489        -1.61783
   C        1.46263        -2.64716        -2.09374
   N        1.78459        -3.12778        -3.08596
   C        1.83720        -3.66846         0.74597
   C        1.74424        -3.80234         2.21526
   O        2.31051        -4.58854         2.94202
   C        2.60064        -4.45755        -0.06983
   C        3.09096        -5.75430         0.21320
   C        4.26963        -6.20428        -0.43833
   C        4.82923        -7.49727        -0.21553
   N        6.05010        -7.76403        -0.72243
   C        6.66385        -6.89766        -1.48217
   C        6.00985        -5.67942        -1.84923
   N        4.87408        -5.35500        -1.29506
   C        6.59908        -4.74412        -2.84406
   C        8.04402        -7.22295        -1.92109
   C        4.15554        -8.47383         0.57602
   C        2.97844        -8.02543         1.21483
   C        2.44225        -6.69974         1.03312
   N        1.26847        -6.55776         1.64800
   S        0.90833        -7.90849         2.42484
   N        2.19254        -8.77372         1.99096
   C        4.57200        -9.83586         0.68522
   C        5.46504       -10.38817        -0.21763
   C        5.86862       -11.70738        -0.24543
   C        5.50963       -12.63354         0.82240
   C        4.63582       -12.31217         1.80786
   S        3.82995       -10.80360         1.94436
   C        6.24482       -13.82375         0.55629
   C        6.99500       -13.66420        -0.61394
   C        7.73690       -14.82280        -0.93379
   C        7.54043       -15.80677        -0.01854
   S        6.44865       -15.37593         1.25725
   C        6.74295       -12.36212        -1.16610
   C        7.24410       -11.90207        -2.39191
   C        6.75000       -10.83072        -3.09488
   C        7.24600       -10.33141        -4.31147
   C        6.58035        -9.22479        -4.92527
   C        6.99674        -8.66820        -6.16873
   N        6.23545        -7.72254        -6.75335
   C        5.19091        -7.24297        -6.12801
   C        4.86108        -7.69958        -4.81855
   N        5.52788        -8.68725        -4.27879
   C        3.72640        -7.11693        -4.04817
   C        4.37372        -6.21511        -6.83126
   C        8.16429        -9.12581        -6.84159
   C        8.80945       -10.24170        -6.25163
   C        8.37451       -10.82940        -5.01022
   N        9.15640       -11.84672        -4.64852
   S       10.31155       -12.04259        -5.75047
   N        9.88816       -10.85157        -6.73886
   C        8.66113        -8.62722        -8.06206
   C        8.43409        -7.44256        -8.71549
   C        8.71469        -7.36611       -10.17160
   O        9.30068        -8.17511       -10.85105
   C        8.08514        -6.09754       -10.62336
   C        7.57096        -5.41911        -9.50412
   C        6.87904        -4.23175        -9.67186
   C        6.72447        -3.71324       -10.95685
   C        7.26050        -4.38854       -12.06519
   C        7.94831        -5.59630       -11.89801
   C        7.15229        -3.86574       -13.37883
   N        7.15510        -3.51409       -14.46889
   C        5.93431        -2.46111       -11.20377
   O        5.32495        -2.28197       -12.21911
   O        5.93393        -1.55229       -10.22054
   C        7.91110        -6.17473        -8.29780
   C        7.94302        -5.63630        -7.03198
   C        8.48674        -6.28727        -5.91468
   N        8.92128        -6.75389        -4.95789
   C        7.47105        -4.35031        -6.71858
   N        7.07535        -3.31495        -6.41362
   H       -0.49096        -0.07880         0.91881
   H       -1.14857         1.05446         5.02511
   H        0.77362        -2.95700         4.76952
   H        2.91865        -4.06894        -1.02884
   H        6.83367        -5.27285        -3.76664
   H        7.53108        -4.32829        -2.46357
   H        5.90583        -3.93353        -3.04998
   H        8.12290        -7.21596        -3.00805
   H        8.32887        -8.20088        -1.54312
   H        8.74026        -6.47405        -1.54560
   H        5.88641        -9.69690        -0.92975
   H        4.35507       -13.01652         2.57555
   H        8.38176       -14.92256        -1.78749
   H        7.97431       -16.78741        -0.00453
   H        8.05077       -12.47049        -2.83597
   H        5.86317       -10.32094        -2.75247
   H        3.86164        -6.04556        -3.90923
   H        3.65714        -7.60150        -3.07772
   H        2.79053        -7.26470        -4.58551
   H        4.43668        -5.26168        -6.30642
   H        3.32653        -6.51054        -6.85524
   H        4.73614        -6.09201        -7.84851
   H        9.28885        -9.32656        -8.60760
   H        6.42490        -3.73824        -8.82507
   H        8.35738        -6.12122       -12.74781
   H        6.47780        -1.79078        -9.45690
*
