# ORCA input file
# SCF done       -179.025601516463          0.000496440145
! CAM-B3LYP def2-SVP def2/J RIJCOSX Grid4 TightSCF
%maxcore 5000
%tddft
    Mode sTDDFT
    Ethresh 5.0
    maxcore 5000
end

%pal
  nprocs 6
  end
* xyz 0 1
   C       -4.04757        -2.16047         7.96727
   C       -4.90729        -2.47151         9.05278
   C       -4.81450        -1.75795        10.22821
   C       -3.85357        -0.73961        10.35470
   C       -2.98136        -0.44710         9.26840
   C       -3.10759        -1.17916         8.06933
   N       -2.04806         0.52011         9.37662
   C       -1.98849         1.17111        10.50593
   C       -2.86257         0.89081        11.57973
   N       -3.77169        -0.04067        11.50762
   C       -5.87676        -3.53543         8.86580
   O       -6.24459        -3.84466         7.61208
   C       -7.13593        -4.86049         7.65540
   C       -7.34511        -5.22885         8.96732
   C       -6.53590        -4.37900         9.74793
   C       -6.41646        -4.46800        11.22724
   F       -5.14391        -4.42776        11.65526
   F       -7.06368        -3.47713        11.87223
   F       -6.93818        -5.61208        11.69415
   C       -7.70298        -5.38817         6.45859
   C       -7.40231        -4.94143         5.22047
   C       -7.97422        -5.48104         4.03274
   O       -8.87537        -6.47954         4.08224
   C       -9.23929        -6.79107         2.81353
   C       -8.56271        -5.98005         1.92253
   C       -7.75216        -5.13925         2.70242
   C       -6.82583        -4.08213         2.22061
   F       -7.14164        -2.86295         2.70250
   F       -5.55195        -4.30079         2.60566
   F       -6.81189        -3.97726         0.88991
   C      -10.19036        -7.82259         2.56328
   C      -10.79815        -8.53186         3.53701
   C      -11.74545        -9.56150         3.25707
   N      -12.39026       -10.28460         4.23819
   C      -13.23332       -11.19588         3.69738
   C      -13.14789       -11.07598         2.32132
   C      -12.20990       -10.04655         2.05501
   S      -12.07494        -9.87092         0.29261
   O      -10.76979       -10.24659        -0.17287
   O      -12.58870        -8.60168        -0.14309
   C      -13.29124       -11.19450        -0.00733
   C      -13.73157       -11.69331         1.17356
   C      -13.62395       -11.52309        -1.33846
   C      -14.57103       -12.43256        -1.70231
   C      -14.85792       -12.72699        -3.05143
   C      -15.82077       -13.61138        -3.45759
   C      -16.15954       -13.93500        -4.83627
   C      -15.29797       -13.83708        -5.89309
   N      -15.64754       -14.02563        -7.26454
   O      -14.76102       -14.36601        -8.01675
   O      -16.80409       -13.83841        -7.58606
   N      -13.86735       -13.61758        -5.69862
   O      -13.30727       -14.36084        -4.92820
   O      -13.36198       -12.71695        -6.31944
   C      -17.49304       -14.50698        -4.81612
   C      -18.44440       -14.94317        -5.69142
   S      -19.78085       -15.63594        -4.86240
   C      -19.07504       -15.34308        -3.31668
   C      -17.87067       -14.73412        -3.44903
   C      -16.83031       -14.22611        -2.54691
   O      -16.81923       -14.26730        -1.33763
   H       -4.14823        -2.72747         7.05466
   H       -5.46951        -1.92502        11.06602
   H       -2.44554        -0.93932         7.25240
   H       -1.23455         1.94290        10.58358
   H       -2.80601         1.44491        12.50703
   H       -7.98352        -6.00760         9.32986
   H       -8.40963        -6.19344         6.59055
   H       -6.69559        -4.13628         5.08918
   H       -8.64225        -5.99199         0.85539
   H      -10.41555        -8.02135         1.52570
   H      -10.57543        -8.32924         4.57556
   H      -12.24529       -10.14778         5.22666
   H      -13.82477       -11.85204         4.30414
   H      -14.45187       -12.49139         1.26416
   H      -13.06290       -10.99189        -2.09763
   H      -15.12766       -12.96439        -0.94610
   H      -14.29599       -12.16950        -3.79139
   H      -18.46339       -14.87473        -6.76068
   H      -19.58592       -15.63622        -2.42155
*
