# ORCA input file
# SCF done       -173.146579410993          0.003622196085
! CAM-B3LYP def2-SVP def2/J RIJCOSX Grid4 TightSCF
%maxcore 5000
%tddft
    Mode sTDDFT
    Ethresh 5.0
    maxcore 5000
end

%pal
  nprocs 6
  end
* xyz 0 1
   C       -3.66691        -2.40862        -3.64854
   S       -3.83424        -3.97834        -3.01945
   C       -2.36044        -3.85601        -2.06447
   C       -1.81527        -2.56180        -2.21881
   C       -2.55400        -1.76111        -3.14585
   C       -2.11449        -0.45917        -3.44953
   C       -1.00212         0.07574        -2.84760
   O       -0.69120         1.33652        -3.24168
   C        0.56170         1.92065        -2.95696
   C       -0.31379        -0.69456        -1.85046
   O        0.73272        -0.10002        -1.21564
   C        1.45657        -0.83075        -0.25114
   C       -0.73274        -1.97260        -1.55627
   C       -1.99657        -5.02953        -1.40280
   C       -0.83442        -5.47300        -0.79522
   C       -0.69871        -6.76761        -0.25033
   C        0.55202        -7.06379         0.22492
   C        1.46879        -6.01427         0.08614
   S        0.70348        -4.64163        -0.66440
   C        2.81993        -5.98384         0.43934
   C        3.61077        -7.03615         0.90840
   C        4.93166        -6.69295         1.08867
   C        5.21416        -5.35674         0.79734
   S        3.77448        -4.52857         0.27811
   C        6.46457        -4.73790         0.90335
   C        6.70176        -3.39148         0.86556
   C        7.97878        -2.83771         1.03216
   C        8.32431        -1.50919         1.27301
   C        9.67277        -1.31043         1.49382
   C       10.42719        -2.48038         1.41352
   S        9.40979        -3.84104         1.03645
   C       11.79079        -2.68212         1.66729
   C       12.74712        -1.79689         2.16328
   C       13.93917        -2.40982         2.48312
   C       13.94855        -3.79397         2.27149
   S       12.45809        -4.28877         1.52828
   C       14.99655        -4.65583         2.60663
   C       15.08315        -6.03609         2.66991
   C       14.06100        -7.02316         2.73214
   O       14.32472        -8.32850         2.34292
   C       15.62416        -8.66514         2.15829
   C       16.67484        -7.72870         2.37908
   C       17.90746        -8.26489         2.19343
   S       17.80130        -9.92493         1.74086
   C       16.07865        -9.89366         1.80229
   O       16.41997        -6.43412         2.69232
   C       12.75318        -6.87760         3.17770
   C       12.20564        -5.77894         3.82086
   C       10.83353        -5.60111         3.96411
   C       10.25291        -4.40312         4.35937
   C        8.85773        -4.06979         4.31737
   C        7.79580        -4.90442         4.03952
   C        6.44912        -4.49928         4.02662
   N        5.32663        -4.25000         4.00621
   C        7.87946        -6.26764         3.70705
   N        7.82380        -7.37504         3.39881
   C        8.73322        -2.63103         4.56989
   C       10.01372        -2.10619         4.79890
   C       11.01091        -3.19238         4.71714
   O       12.21015        -3.06872         4.90245
   C       10.21231        -0.75961         5.01755
   C        9.10678         0.07767         5.00471
   C        7.82753        -0.42179         4.78241
   C        7.63791        -1.78630         4.56402
   C        6.64824         0.50190         4.79601
   H       -4.38266        -2.02994        -4.35034
   H       -2.65189         0.13942        -4.16675
   H        0.58966         2.82959        -3.55787
   H        1.38687         1.26776        -3.24835
   H        0.65957         2.17910        -1.90121
   H        0.83281        -1.08552         0.61045
   H        2.25809        -0.16686         0.06880
   H        1.88625        -1.74445        -0.67243
   H       -0.23928        -2.52290        -0.77911
   H       -2.76758        -5.79311        -1.43457
   H       -1.52761        -7.45288        -0.22759
   H        0.82062        -8.00365         0.67151
   H        3.21330        -8.01788         1.09164
   H        5.69226        -7.36442         1.44584
   H        7.30063        -5.40458         1.07701
   H        5.86965        -2.70619         0.76683
   H        7.58661        -0.72710         1.31166
   H       10.11202        -0.35705         1.72435
   H       12.54241        -0.75364         2.32226
   H       14.77641        -1.89890         2.92416
   H       15.94660        -4.16394         2.78605
   H       18.85920        -7.78729         2.29546
   H       15.50773       -10.77081         1.58144
   H       12.11721        -7.73321         2.98650
   H       12.85998        -5.00506         4.18936
   H       10.18575        -6.39919         3.62466
   H       11.20953        -0.38156         5.18578
   H        9.23572         1.13850         5.16705
   H        6.64105        -2.15851         4.38884
   H        6.91122         1.47386         4.38419
   H        6.31098         0.65429         5.82140
   H        5.82073         0.08356         4.22867
*
