# ORCA input file
# SCF done       -185.145558975623          0.000344633464
! CAM-B3LYP def2-SVP def2/J RIJCOSX Grid4 TightSCF
%maxcore 5000
%tddft
    Mode sTDDFT
    Ethresh 5.0
    maxcore 5000
end

%pal
  nprocs 6
  end
* xyz 0 1
   C        0.12637         0.72485         2.96331
   S       -0.69929        -0.09558         1.72608
   C       -0.95261        -1.51861         2.71243
   C       -0.38925        -1.31031         3.99200
   C        0.22141        -0.02357         4.11896
   C        0.83473         0.34615         5.33062
   C        0.84954        -0.50130         6.41011
   O        1.47843        -0.00820         7.50480
   C        1.64746        -0.75548         8.69054
   C        0.20517        -1.78277         6.29727
   O        0.20398        -2.57326         7.39723
   C       -0.43581        -3.83201         7.35453
   C       -0.38663        -2.15606         5.11049
   C       -1.58951        -2.65923         2.19791
   S       -1.51048        -4.16945         3.04963
   C       -2.42635        -5.02812         1.84338
   C       -2.78946        -4.16998         0.79066
   C       -2.32128        -2.82736         0.99108
   C       -2.65955        -1.87341         0.03910
   C       -3.39717        -2.20618        -1.08640
   N       -3.69098        -1.14845        -1.98816
   O       -3.29036        -0.03199        -1.71644
   O       -4.33388        -1.39179        -3.00281
   C       -3.84451        -3.55005        -1.31105
   N       -4.54704        -3.91251        -2.39659
   C       -3.52434        -4.49884        -0.34354
   C       -2.70747        -6.37861         2.06410
   S       -3.65830        -7.40964         1.00888
   C       -3.54464        -8.83254         2.04103
   C       -2.76523        -8.49510         3.16372
   C       -2.32459        -7.14872         3.15201
   O       -1.59838        -6.86088         4.25044
   C       -1.56802        -8.01900         4.96775
   N       -0.87061        -8.00698         6.18420
   O       -0.85226        -9.04507         6.82427
   O       -0.33570        -6.96389         6.52233
   C       -2.25773        -9.04468         4.36022
   C       -4.17226       -10.03759         1.74817
   S       -4.02379       -11.38691         2.82772
   C       -5.03715       -12.42107         1.86079
   C       -5.51618       -11.72975         0.74191
   C       -5.01387       -10.38579         0.66013
   C       -5.39592        -9.58591        -0.40247
   C       -6.27514       -10.04693        -1.37181
   N       -6.60413        -9.14397        -2.40747
   O       -6.09068        -8.03462        -2.39511
   O       -7.39308        -9.49010        -3.28289
   C       -6.83190       -11.36483        -1.27757
   N       -7.69753       -11.83851        -2.19984
   C       -6.44627       -12.16231        -0.20929
   C       -5.24439       -13.76590         2.31757
   C       -5.24427       -14.04826         3.67693
   C       -5.41640       -15.33657         4.15801
   C       -5.60132       -16.43342         3.32821
   C       -5.59481       -16.18914         1.92466
   C       -5.37645       -14.87273         1.42768
   N       -5.21990       -14.67938         0.10744
   C       -5.36066       -15.67714        -0.72429
   C       -5.07494       -15.38586        -2.16693
   C       -3.63102       -15.75941        -2.50969
   C       -5.74896       -16.95981        -0.24096
   C       -6.10514       -18.07325        -1.18361
   C       -6.44375       -19.37905        -0.47867
   N       -5.82296       -17.18340         1.04427
   C       -5.78112       -17.73264         3.94827
   C       -5.84345       -18.91561         3.34409
   H        0.50074         1.71379         2.78933
   H        1.30347         1.31186         5.42572
   H        0.69167        -0.98520         9.16525
   H        2.23085        -0.10788         9.34502
   H        2.19624        -1.68198         8.51249
   H        0.02226        -4.50484         6.62672
   H       -1.50285        -3.72890         7.13926
   H       -0.30848        -4.25297         8.34973
   H       -0.86564        -3.11604         5.05464
   H       -2.37123        -0.84051         0.14711
   H       -4.79697        -3.21263        -3.08076
   H       -4.86718        -4.86143        -2.48631
   H       -3.86674        -5.50917        -0.49440
   H       -2.36343       -10.03823         4.74361
   H       -5.02814        -8.57940        -0.51034
   H       -8.00571       -11.22665        -2.94151
   H       -8.11246       -12.74182        -2.06504
   H       -6.87358       -13.14645        -0.12335
   H       -5.12399       -13.23587         4.37967
   H       -5.41269       -15.48992         5.22790
   H       -5.21037       -14.31509        -2.32713
   H       -5.76359       -15.93348        -2.81208
   H       -3.42517       -15.53981        -3.55422
   H       -3.44746       -16.81752        -2.33589
   H       -2.94423       -15.18657        -1.89151
   H       -5.27460       -18.23316        -1.87567
   H       -6.96341       -17.74613        -1.78005
   H       -5.57513       -19.75616         0.05446
   H       -6.75481       -20.12535        -1.20596
   H       -7.24866       -19.22577         0.23494
   H       -5.84892       -17.69037         5.03004
   H       -5.77229       -19.00403         2.27695
   H       -5.97085       -19.82120         3.91354
*
