# ORCA input file
# SCF done       -172.848343733693          0.000605279467
! CAM-B3LYP def2-SVP def2/J RIJCOSX Grid4 TightSCF
%maxcore 5000
%tddft
    Mode sTDDFT
    Ethresh 5.0
    maxcore 5000
end

%pal
  nprocs 6
  end
* xyz 0 2
   C        1.27796         0.05922         9.12454
   S        2.54837         1.16501         8.80012
   C        3.22792         0.13873         7.53911
   C        2.43480        -1.00087         7.36492
   C        1.32964        -1.05185         8.30832
   C        0.43089        -2.11481         8.36514
   S        0.47543        -3.46208         7.33171
   C        1.77398        -3.08202         6.26586
   C        2.56894        -1.98828         6.36582
   C        4.42100         0.57862         6.94471
   C        5.30483        -0.13987         6.17236
   C        6.48741         0.39019         5.67217
   C        7.41710        -0.33836         4.94350
   C        8.67237         0.09072         4.48943
   C        9.39595        -0.87885         3.83549
   C        8.73341        -2.10433         3.73158
   S        7.16040        -2.01102         4.48279
   C        9.19827        -3.28902         3.14885
   C       10.47914        -3.56629         2.67106
   C       10.62105        -4.84910         2.18670
   C        9.45949        -5.61613         2.25576
   S        8.16313        -4.68256         2.96554
   C        9.30482        -6.93886         1.82687
   C        8.16320        -7.68434         1.94924
   C        8.03750        -8.99964         1.48674
   C        6.93075        -9.84428         1.57873
   C        7.11864       -11.08578         1.00746
   C        8.38197       -11.25413         0.43716
   S        9.34269        -9.81245         0.65821
   C        8.91091       -12.35494        -0.24223
   C        8.34255       -13.61629        -0.46173
   C        9.15059       -14.46942        -1.17119
   C       10.38722       -13.91076        -1.54705
   S       10.49607       -12.26617        -0.96645
   C       11.41718       -14.50797        -2.24975
   C       12.59474       -13.83380        -2.58230
   O       12.71979       -12.50780        -2.27247
   C       13.77822       -14.23820        -3.19373
   C       14.46945       -15.36828        -3.79124
   O       14.13384       -16.51332        -3.97465
   N       15.71589       -14.83877        -4.15057
   C       15.89887       -13.49363        -3.85117
   O       16.90073       -12.86108        -4.07661
   C       14.63124       -13.10534        -3.22888
   C       13.94606       -12.05300        -2.65680
   C       14.29474       -10.69306        -2.42693
   C       13.39774        -9.79749        -1.96295
   C       13.69019        -8.43574        -1.58914
   C       14.87832        -8.09447        -1.00793
   S       14.93499        -6.49438        -0.38889
   C       13.30322        -6.22399        -0.92782
   C       12.76010        -7.32912        -1.59760
   C       11.50080        -7.20208        -2.23404
   C       11.12778        -8.22739        -3.27835
   C       10.06989        -9.25434        -2.87201
   C       10.72598        -6.07217        -2.00261
   C        9.32976        -5.96514        -2.54885
   C        8.30991        -6.47341        -1.52550
   C       11.24308        -4.99151        -1.24654
   C       10.68262        -3.69056        -0.96784
   C       11.58370        -2.86601        -0.37184
   S       13.12056        -3.57863        -0.06444
   C       12.56783        -5.05974        -0.78178
   C        9.32600        -3.20682        -1.21764
   C        9.06265        -2.01650        -1.73772
   H        0.56222         0.27159         9.89161
   H       -0.35748        -2.13740         9.09782
   H        1.90563        -3.81394         5.48771
   H        3.32938        -1.86276         5.61202
   H        4.70152         1.59622         7.18946
   H        5.12708        -1.18630         5.97182
   H        6.72469         1.42638         5.87343
   H        9.02311         1.09281         4.66225
   H       10.37940        -0.72405         3.42931
   H       11.27639        -2.84640         2.70497
   H       11.53962        -5.25101         1.79845
   H       10.17232        -7.38842         1.35860
   H        7.29596        -7.24769         2.42834
   H        6.01829        -9.53410         2.05715
   H        6.37054       -11.85764         0.98450
   H        7.36655       -13.87895        -0.09396
   H        8.88817       -15.47911        -1.43227
   H       11.33411       -15.53950        -2.55173
   H       16.43041       -15.39753        -4.59387
   H       15.31061       -10.42220        -2.67163
   H       12.38614       -10.13447        -1.78902
   H       15.72052        -8.73884        -0.84785
   H       10.78520        -7.69997        -4.17292
   H       12.03903        -8.75773        -3.55939
   H        9.06830        -8.83865        -2.92423
   H       10.24089        -9.60278        -1.85757
   H       10.11258       -10.11152        -3.54061
   H        9.23025        -6.54630        -3.46452
   H        9.11326        -4.92431        -2.79465
   H        8.49044        -7.51819        -1.28996
   H        7.29973        -6.37250        -1.91714
   H        8.38028        -5.91773        -0.59368
   H       11.41015        -1.85539        -0.05701
   H        8.51584        -3.84695        -0.89986
   H        9.84630        -1.35746        -2.07278
   H        8.05285        -1.66650        -1.86667
*
