# ORCA input file
# SCF done       -205.854854662483          0.000881114906
! CAM-B3LYP def2-SVP def2/J RIJCOSX Grid4 TightSCF
%maxcore 5000
%tddft
    Mode sTDDFT
    Ethresh 5.0
    maxcore 5000
end

%pal
  nprocs 6
  end
* xyz 0 1
   C       -0.99774        -0.12926        -3.22313
   C       -1.34282        -1.34247        -2.67479
   C       -0.62143        -2.53585        -2.88014
   N       -0.07967        -3.54002        -3.01004
   C       -2.45520        -1.58017        -1.84384
   N       -3.34152        -1.84720        -1.16192
   C        0.15748         0.10052        -4.08871
   C        0.17498         1.46588        -4.46656
   C        1.13905         1.99932        -5.28539
   C        2.14027         1.14238        -5.75601
   C        2.11812        -0.21864        -5.37198
   C        1.14016        -0.75738        -4.54295
   S        3.44663        -1.09929        -6.06313
   C        4.00560         0.35353        -6.84933
   C        3.23848         1.44291        -6.60731
  Br        5.54784         0.29521        -7.91496
   C       -0.97246         2.14854        -3.84388
   O       -1.25858         3.33017        -3.96007
   C       -1.68585         1.13231        -3.07354
   C       -2.83496         1.33919        -2.33508
   C       -3.58225         2.49313        -2.13034
   S       -3.23575         4.07653        -2.75167
   C       -4.62591         4.78766        -1.98528
   C       -5.38694         3.80529        -1.28942
   C       -4.78386         2.51946        -1.35836
   C       -5.38410         1.42416        -0.72194
   C       -6.56879         1.60632        -0.05484
   F       -7.15767         0.56993         0.55380
   C       -7.18713         2.86598        -0.02047
   F       -8.36580         3.00921         0.60649
   C       -6.61327         3.95338        -0.62786
   C       -4.78605         6.16418        -2.15264
   C       -5.68579         7.00558        -1.53331
   C       -5.78826         8.36330        -1.80463
   C       -6.71804         9.18862        -1.19049
   C       -6.93293        10.56235        -1.40439
   C       -7.95656        11.09243        -0.66265
   C       -8.59014        10.15738         0.17145
   S       -7.85532         8.58597        -0.00303
   C       -9.66196        10.34268         1.04079
   C      -10.39793        11.50818         1.30647
   C      -11.40868        11.32220         2.21164
   C      -11.50538        10.00949         2.71787
   S      -10.27298         9.00728         1.98291
   C      -12.51756         9.55009         3.54675
   C      -12.68884         8.29797         4.13128
   S      -14.31830         7.79663         4.50378
   C      -13.83303         6.20016         4.97608
   C      -12.42260         6.08537         4.93340
   C      -11.77364         7.27187         4.49067
   C      -10.37701         7.36008         4.56524
   C       -9.65726         6.26530         4.96482
   F       -8.32087         6.34471         5.03690
   C      -10.29716         5.06295         5.31924
   F       -9.55774         4.01065         5.68981
   C      -11.66348         4.97195         5.32351
   C      -14.74549         5.22512         5.38076
   C      -16.10746         5.38564         5.41454
   C      -17.02773         4.40598         5.81804
   C      -16.84509         3.25587         6.54646
   C      -15.80427         2.78135         7.42318
   C      -14.93298         3.53962         8.17015
   C      -14.01826         3.00226         9.09714
   N      -13.24272         2.62149         9.85342
   C      -14.89598         4.94600         8.16158
   N      -14.82944         6.09172         8.20696
   C      -16.00067         1.34250         7.59648
   C      -17.25158         0.98418         7.03543
   C      -17.86733         2.18240         6.43070
   O      -18.95695         2.27355         5.91045
   C      -17.73619        -0.30008         7.07247
   C      -16.94237        -1.27962         7.67994
   C      -15.68651        -0.91488         8.22019
   C      -15.20011         0.38726         8.19098
   S      -14.86466        -2.28166         8.90843
   C      -16.20355        -3.31047         8.47285
   C      -17.21365        -2.66596         7.84198
  Br      -16.14031        -5.13767         8.89090
   H        1.12267         3.04363        -5.55508
   H        1.17010        -1.80150        -4.28081
   H        3.43711         2.41869        -7.01158
   H       -3.22991         0.46862        -1.83244
   H       -4.95268         0.43594        -0.74113
   H       -7.14217         4.88906        -0.59553
   H       -4.08481         6.61894        -2.84323
   H       -6.34934         6.61947        -0.77513
   H       -5.13413         8.80923        -2.54171
   H       -6.33393        11.12567        -2.09778
   H       -8.26031        12.12299        -0.70174
   H      -10.17915        12.44626         0.82954
   H      -12.08072        12.09779         2.53359
   H      -13.34629        10.23741         3.67272
   H       -9.85527         8.27577         4.34871
   H      -12.12788         4.05404         5.64357
   H      -14.32865         4.26213         5.64144
   H      -16.51763         6.31277         5.03518
   H      -18.04151         4.52292         5.44538
   H      -18.69657        -0.54383         6.64616
   H      -14.23425         0.61570         8.61030
   H      -18.11347        -3.14646         7.50375
*
