# ORCA input file
# SCF done       -169.740121559591          0.000536395425
! CAM-B3LYP def2-SVP def2/J RIJCOSX Grid4 TightSCF
%maxcore 5000
%tddft
    Mode sTDDFT
    Ethresh 5.0
    maxcore 5000
end

%pal
  nprocs 6
  end
* xyz 0 1
   C       -1.23800         3.33332        -3.07953
   C       -0.33324         3.99053        -2.28376
   C        1.06219         3.94990        -2.47522
   N        2.20474         3.95655        -2.59063
   C       -0.67033         4.75209        -1.14609
   N       -0.86126         5.36072        -0.19069
   C       -0.91113         2.42171        -4.16836
   C       -2.10870         1.82343        -4.62991
   C       -2.13010         0.90466        -5.64972
   C       -0.91039         0.55522        -6.24039
   C        0.27986         1.16116        -5.77472
   C        0.30143         2.09346        -4.74462
   S        1.67066         0.59458        -6.64991
   C        0.64774        -0.43697        -7.61367
   C       -0.66726        -0.36195        -7.29932
  Br        1.41153        -1.51408        -8.94627
   C       -3.25266         2.36866        -3.87028
   O       -4.42863         2.14426        -4.08477
   C       -2.67466         3.32469        -2.91071
   C       -3.38726         4.19452        -2.12826
   C       -4.73928         4.11982        -1.73978
   S       -5.53815         5.64866        -1.44520
   C       -7.00827         4.85117        -0.98793
   C       -6.85641         3.47136        -1.01624
   C       -5.58033         3.05246        -1.42704
   C       -5.17618         1.61235        -1.42336
   C       -3.76821         1.40576        -0.94724
   C       -2.94640         0.50247        -1.44960
   C       -6.14586         0.79190        -0.56023
   C       -7.58013         1.08336        -0.97946
   C       -7.94234         2.51984        -0.61506
   C       -8.18162         5.58631        -0.65099
   C       -8.23145         6.93577        -0.65127
   C       -9.34794         7.79210        -0.37167
   C      -10.66536         7.52850        -0.42846
   C      -11.27641         6.23433        -0.85860
   C      -11.65374         8.63895        -0.16051
   N      -12.26466         9.06184        -1.40187
   C      -13.48241         8.64606        -1.80532
   C      -13.90738         8.66905        -3.09895
   C      -15.19856         8.34530        -3.56165
   C      -16.35228         8.10984        -2.85787
   C      -17.60677         7.79318        -3.43826
   C      -18.63341         7.67103        -2.55341
   C      -18.25956         7.88626        -1.20778
   S      -16.54564         8.21954        -1.10873
   C      -19.06124         7.87552        -0.08520
   C      -20.44542         7.60869        -0.00367
   C      -20.95473         7.70952         1.25390
   C      -20.00337         8.06833         2.24390
   S      -18.42212         8.25121         1.50849
   C      -20.26299         8.26641         3.57345
   C      -19.35172         8.65503         4.57063
   S      -17.63883         8.95287         4.32259
   C      -17.34271         9.37275         5.96620
   C      -18.50231         9.29371         6.69975
   C      -19.62010         8.88883         5.90858
   O      -20.74395         8.82262         6.65558
   C      -20.35711         9.18020         7.90973
   N      -21.34255         9.20053         8.92065
   O      -20.97214         9.53233        10.03314
   O      -22.47724         8.89294         8.62117
   C      -19.02311         9.47686         8.00952
   H       -3.05775         0.46652        -5.98361
   H        1.23275         2.53365        -4.42958
   H       -1.43535        -0.92779        -7.79420
   H       -2.87663         5.09011        -1.79161
   H       -5.25254         1.24736        -2.45774
   H       -3.45624         2.02872        -0.11822
   H       -3.23290        -0.12889        -2.27523
   H       -1.95316         0.35453        -1.06035
   H       -6.00839         1.04814         0.49301
   H       -5.91593        -0.26732        -0.68226
   H       -7.67422         0.94207        -2.05796
   H       -8.26921         0.39602        -0.48601
   H       -8.09276         2.59627         0.46729
   H       -8.88157         2.80169        -1.09713
   H       -9.03586         4.99731        -0.35934
   H       -7.30809         7.46073        -0.87014
   H       -9.06166         8.80492        -0.11174
   H      -10.66865         5.74881        -1.61951
   H      -12.27435         6.40200        -1.26160
   H      -11.37181         5.55709        -0.00929
   H      -11.15232         9.49706         0.29725
   H      -12.44631         8.29673         0.50934
   H      -11.61520         9.34098        -2.12532
   H      -14.13226         8.31239        -1.01033
   H      -13.18919         8.95099        -3.85881
   H      -15.30838         8.29340        -4.63810
   H      -17.70995         7.67438        -4.50296
   H      -19.64825         7.44929        -2.83020
   H      -21.02546         7.35238        -0.87214
   H      -21.98655         7.54626         1.50980
   H      -21.28098         8.12660         3.91218
   H      -16.35730         9.64635         6.27894
   H      -18.51190         9.77999         8.89939
*
