# ORCA input file
# SCF done       -170.861540705513          0.000985131992
! CAM-B3LYP def2-SVP def2/J RIJCOSX Grid4 TightSCF
%maxcore 5000
%tddft
    Mode sTDDFT
    Ethresh 5.0
    maxcore 5000
end

%pal
  nprocs 6
  end
* xyz 0 1
   C       -9.48459        -0.56034         2.71553
   C       -8.83391        -1.71158         3.09278
   C       -9.46861        -2.81703         3.69393
   N       -9.91959        -3.75002         4.18870
   C       -7.45552        -1.96214         2.94633
   N       -6.34287        -2.23849         2.85949
   C      -10.91624        -0.31711         2.87996
   C      -11.21301         0.97915         2.39218
   C      -12.48020         1.50678         2.40530
   C      -13.50993         0.71528         2.92640
   C      -13.20585        -0.57771         3.41160
   C      -11.92152        -1.11066         3.39770
   S      -14.62303        -1.38455         4.01168
   C      -15.59150         0.00737         3.60637
   C      -14.89195         1.02506         3.05093
  Br      -17.43462        -0.01215         3.95579
   C       -9.97038         1.60113         1.90025
   O       -9.86944         2.71992         1.41921
   C       -8.91050         0.61798         2.10616
   C       -7.58125         0.77552         1.76656
   C       -6.91222         1.85038         1.19243
   S       -7.61341         3.37965         0.74220
   C       -6.10616         4.00837         0.18459
   C       -5.06674         3.06206         0.32586
   C       -5.51937         1.84227         0.89906
   C       -4.61051         0.79585         1.11674
   C       -3.29799         0.97542         0.76523
   F       -2.41462        -0.01147         0.96411
   C       -2.85176         2.18316         0.19446
   F       -1.55681         2.31421        -0.13598
   C       -3.71681         3.21968        -0.02574
   C       -5.99031         5.32199        -0.32354
   C       -7.03092         6.18991        -0.41106
   C       -6.89353         7.52796        -0.87661
   C       -7.85906         8.46849        -0.90929
   C       -9.28350         8.25588        -0.51692
   C       -7.53412         9.86809        -1.37584
   N       -8.21950        10.19462        -2.60549
   C       -9.44957        10.74864        -2.63293
   C      -10.25561        10.79866        -3.72896
   C      -11.50398        11.44253        -3.72567
   C      -12.33768        11.55077        -4.80839
   C      -13.61076        12.16786        -4.84424
   C      -14.21285        12.14412        -6.06492
   C      -13.44717        11.51156        -7.07096
   S      -11.93889        10.92808        -6.40822
   C      -13.77023        11.36017        -8.40546
   C      -14.94468        11.78477        -9.06476
   C      -14.95788        11.51544       -10.39839
   C      -13.79155        10.86273       -10.87395
   S      -12.67937        10.59019        -9.54535
   C      -13.54834        10.50491       -12.17332
   C      -12.40338         9.87188       -12.68564
   S      -11.01158         9.36274       -11.74324
   C      -10.16192         8.73498       -13.10141
   C      -10.89879         8.89849       -14.25069
   C      -12.15246         9.53582       -14.00563
   O      -12.85071         9.68823       -15.15105
   C      -12.05933         9.15705       -16.12195
   N      -12.54257         9.18384       -17.44962
   O      -11.81737         8.70073       -18.30052
   O      -13.63099         9.67939       -17.65148
   C      -10.87095         8.66322       -15.65249
   H      -12.67342         2.49740         2.02459
   H      -11.74382        -2.10178         3.77967
   H      -15.33054         1.95617         2.74146
   H       -6.94140        -0.06977         1.97511
   H       -4.90573        -0.14568         1.55218
   H       -3.34988         4.13330        -0.46328
   H       -5.00734         5.64177        -0.64304
   H       -8.00278         5.85084        -0.08305
   H       -5.89559         7.81074        -1.19207
   H       -9.52486         7.20584        -0.39476
   H       -9.94951         8.67803        -1.27076
   H       -9.48864         8.76834         0.42417
   H       -6.45838         9.97494        -1.53998
   H       -7.84351        10.59409        -0.61765
   H       -7.94476         9.66104        -3.41867
   H       -9.75752        11.23086        -1.71413
   H       -9.93372        10.33125        -4.64995
   H      -11.84240        11.88795        -2.79875
   H      -14.04061        12.61152        -3.96322
   H      -15.17909        12.56771        -6.27106
   H      -15.74446        12.27643        -8.54076
   H      -15.76454        11.76621       -11.06402
   H      -14.31052        10.73449       -12.90633
   H       -9.19577         8.29507       -12.97085
   H      -10.10466         8.20387       -16.24151
*
