# ORCA input file
# SCF done       -201.876821268585          0.000426525154
! CAM-B3LYP def2-SVP def2/J RIJCOSX Grid4 TightSCF
%maxcore 5000
%tddft
    Mode sTDDFT
    Ethresh 5.0
    maxcore 5000
end

%pal
  nprocs 6
  end
* xyz 0 1
   C       -3.29990         4.62249        -2.97181
   C       -2.37785         3.60995        -3.01937
   C       -1.35482         3.51565        -3.98529
   N       -0.49870         3.39039        -4.73970
   C       -2.34546         2.51153        -2.13478
   N       -2.27237         1.58083        -1.46615
   C       -3.42652         5.70904        -3.93375
   C       -4.58928         6.45883        -3.62871
   C       -4.98695         7.54320        -4.37222
   C       -4.20138         7.90478        -5.47163
   C       -3.03714         7.15466        -5.76443
   C       -2.63355         6.05950        -5.01175
   S       -2.20935         7.77819        -7.15963
   C       -3.42402         9.01737        -7.33070
   C       -4.39885         8.97034        -6.39194
  Br       -3.28982        10.25645        -8.73212
   C       -5.23941         5.89911        -2.42530
   O       -6.20909         6.34638        -1.85393
   C       -4.38800         4.74805        -2.01865
   C       -4.54474         4.05735        -0.85924
   C       -5.67891         4.16362         0.01769
   C       -5.44594         4.35511         1.35576
   S       -6.83872         4.73239         2.26621
   C       -7.82410         4.54595         0.84359
   C       -7.08892         4.19748        -0.29755
   C       -7.78386         3.87738        -1.48996
   C       -7.04893         3.19846        -2.61690
   C       -6.47267         1.85255        -2.17352
   C       -9.15525         4.09755        -1.56737
   C       -9.91438         3.87721        -2.84688
   C      -10.42913         2.43879        -2.94547
   C       -9.88357         4.51219        -0.42667
   C      -11.29065         4.80289        -0.25500
   C      -11.57399         5.17707         1.02630
   S      -10.22948         5.17942         2.09395
   C       -9.19726         4.70317         0.78351
   C      -12.36157         4.75124        -1.23412
   C      -13.30112         5.71449        -1.30140
   C      -14.37338         5.71284        -2.23904
   O      -15.25251         6.75510        -2.21759
   C      -14.73046         4.86278        -3.26529
   C      -14.38369         3.62849        -3.96514
   O      -13.49738         2.82817        -3.77836
   N      -15.33651         3.53760        -4.97138
   C      -16.26958         4.58080        -5.00303
   O      -17.16096         4.66962        -5.81712
   C      -15.87316         5.42743        -3.89344
   C      -16.17146         6.60251        -3.21602
   C      -17.19422         7.53556        -3.45784
   C      -17.41285         8.66426        -2.71184
   C      -18.38289         9.65041        -2.93946
   C      -19.24784         9.77474        -4.00961
   C      -20.20225        10.80954        -4.17899
   C      -20.91724        10.74121        -5.34033
   C      -20.56632         9.64834        -6.15574
   S      -19.30296         8.70748        -5.39172
   C      -21.04096         9.24155        -7.38913
   C      -22.04756         9.80354        -8.20508
   C      -22.23253         9.11812        -9.36421
   C      -21.38614         7.98163        -9.53521
   S      -20.35613         7.81198        -8.12868
   C      -21.40216         7.21432       -10.66783
   C      -20.63606         6.07852       -11.05827
   C      -20.79147         5.57863       -12.36910
   O      -21.66404         6.27857       -13.14198
   C      -22.28889         5.71934       -14.27786
   C      -20.03250         4.46131       -12.83449
   O      -20.20802         4.11143       -14.14512
   C      -19.46446         3.03415       -14.66124
   C      -19.15939         3.79790       -12.00345
   C      -18.99984         4.24894       -10.68795
   C      -19.72201         5.39257       -10.21499
   N      -19.42641         5.65871        -8.94882
   S      -18.34727         4.59447        -8.40001
   N      -18.20352         3.73128        -9.75103
   H       -5.87875         8.09283        -4.11482
   H       -1.73605         5.52314        -5.27090
   H       -5.22375         9.65779        -6.34813
   H       -3.72224         3.45638        -0.49104
   H       -4.48444         4.38016         1.83297
   H       -6.24475         3.83099        -2.99600
   H       -7.72137         3.01273        -3.44941
   H       -5.69520         1.97387        -1.42321
   H       -6.03941         1.33493        -3.02680
   H       -7.25783         1.22881        -1.75217
   H       -9.29169         4.11142        -3.71092
   H      -10.75388         4.57142        -2.87526
   H       -9.61183         1.74397        -3.12308
   H      -11.15008         2.34847        -3.75260
   H      -10.91991         2.14707        -2.01994
   H      -12.54345         5.41276         1.42028
   H      -12.43308         3.89797        -1.89167
   H      -13.25575         6.58091        -0.65606
   H      -15.35599         2.77492        -5.63284
   H      -17.81921         7.27811        -4.29664
   H      -16.77433         8.81492        -1.85042
   H      -18.45605        10.43491        -2.19662
   H      -20.33085        11.57653        -3.43511
   H      -21.67689        11.44665        -5.62736
   H      -22.59820        10.68323        -7.92127
   H      -22.94884         9.38984       -10.12032
   H      -22.10845         7.53918       -11.42133
   H      -22.65847         4.71126       -14.08211
   H      -21.62022         5.70008       -15.14006
   H      -23.13125         6.37981       -14.48782
   H      -18.38863         3.22428       -14.60256
   H      -19.76087         2.95364       -15.70604
   H      -19.69938         2.09860       -14.14465
   H      -18.58056         2.95238       -12.33051
*
