# ORCA input file
# SCF done       -186.699066286176          0.000473395955
! CAM-B3LYP def2-SVP def2/J RIJCOSX Grid4 TightSCF
%maxcore 5000
%tddft
    Mode sTDDFT
    Ethresh 5.0
    maxcore 5000
end

%pal
  nprocs 6
  end
* xyz 0 1
   C       -5.54317        -0.23900        -0.30994
   C       -4.53930        -0.82012         0.42610
   C       -3.66904        -1.81074        -0.05425
   N       -2.90434        -2.59732        -0.39872
   C       -4.28461        -0.51338         1.77823
   N       -4.04303        -0.32596         2.88517
   C       -5.97450        -0.63434        -1.64611
   C       -7.14899         0.08802        -1.96700
   C       -7.80131        -0.05717        -3.16501
   C       -7.29026        -0.98854        -4.07658
   C       -6.13980        -1.73373        -3.73290
   C       -5.45670        -1.55767        -2.53396
   S       -5.72610        -2.87893        -4.97627
   C       -7.07726        -2.33216        -5.93363
   C       -7.80029        -1.34532        -5.35554
  Br       -7.42545        -3.12913        -7.59337
   C       -7.52798         0.95138        -0.82455
   O       -8.48797         1.68797        -0.76923
   C       -6.44142         0.78036         0.16200
   C       -6.22183         1.63493         1.21511
   C       -7.17412         2.52219         1.75254
   S       -6.65094         4.11663         2.23976
   C       -8.27707         4.59951         2.50199
   C       -9.18142         3.60664         2.29108
   C      -10.65223         3.76922         2.47598
   C       -8.56021         2.37921         1.90442
   C       -9.26455         1.13959         1.87557
   C       -8.69911        -0.06942         2.14519
   C       -9.39693        -1.28831         2.19637
   C       -8.76105        -2.46711         2.49724
   C       -9.38152        -3.71191         2.59869
   C       -8.69922        -4.88365         2.86344
   C       -9.24545        -6.16548         3.09707
   C       -8.31648        -7.12808         3.37392
   C       -6.98945        -6.65547         3.33829
   S       -6.95253        -4.94961         2.97536
   C       -5.80629        -7.35981         3.51475
   C       -5.60802        -8.68701         3.93949
   C       -4.29304        -9.05340         4.00476
   C       -3.38577        -8.04802         3.59578
   S       -4.27529        -6.58903         3.17980
   C       -2.00844        -8.12621         3.61843
   C       -1.12228        -7.18218         3.06877
   S        0.40711        -6.85069         3.83362
   C        0.70981        -5.56454         2.72629
   C       -0.27067        -5.38913         1.80273
   C       -0.19795        -4.36849         0.72059
   C       -1.32261        -6.34644         1.95490
   C       -2.35080        -6.63841         1.01654
   C       -3.00245        -5.78378         0.18084
   C       -4.01889        -6.24518        -0.67687
   C       -4.93395        -5.43313        -1.29304
   C       -5.92334        -5.95755        -2.13023
   C       -7.04320        -5.38153        -2.68607
   C       -7.82644        -4.21335        -2.40270
   C       -7.81227        -3.40402        -1.28638
   C       -6.89774        -3.40903        -0.22384
   N       -6.21881        -3.28426         0.69729
   C       -8.79778        -2.43945        -1.00380
   N       -9.56995        -1.65570        -0.66941
   C       -8.81587        -4.07750        -3.47439
   C       -8.70324        -5.18134        -4.35285
   C       -7.66014        -6.08835        -3.83523
   O       -7.35175        -7.17836        -4.26686
   C       -9.45120        -5.30362        -5.49656
   C      -10.35371        -4.27659        -5.79654
   C      -10.47126        -3.18531        -4.90710
   C       -9.72026        -3.06869        -3.74298
   S      -11.62119        -2.01477        -5.48172
   C      -11.92177        -2.99686        -6.89218
   C      -11.20311        -4.14279        -6.92918
  Br      -13.15551        -2.41162        -8.17829
   H       -8.68951         0.51376        -3.38534
   H       -4.56579        -2.12748        -2.32539
   H       -8.65849        -0.88381        -5.80896
   H       -5.21318         1.72413         1.60403
   H       -8.47674         5.60892         2.80623
   H      -10.89185         4.80084         2.71989
   H      -11.00780         3.12764         3.28145
   H      -11.17500         3.49258         1.56186
   H      -10.33177         1.19229         1.71439
   H       -7.64231        -0.11417         2.37802
   H      -10.45752        -1.28937         1.98663
   H       -7.69077        -2.43936         2.66635
   H      -10.45615        -3.77230         2.48334
   H      -10.30715        -6.33756         3.06512
   H       -8.55161        -8.15704         3.58010
   H       -6.42857        -9.32994         4.20380
   H       -3.94938       -10.02484         4.31428
   H       -1.57398        -8.94567         4.17711
   H        1.62077        -5.00662         2.82295
   H        0.79017        -3.91576         0.69626
   H       -0.93398        -3.58259         0.88267
   H       -0.40612        -4.82471        -0.24534
   H       -2.67954        -7.67377         1.02197
   H       -2.82447        -4.72039         0.21611
   H       -4.11699        -7.31772        -0.80658
   H       -4.88188        -4.37141        -1.11380
   H       -5.76738        -6.98018        -2.46673
   H       -9.33286        -6.15284        -6.15067
   H       -9.84333        -2.21019        -3.10460
   H      -11.25829        -4.86129        -7.72608
*
