# ORCA input file
# SCF done       -167.061871057843          0.000522888837
! CAM-B3LYP def2-SVP def2/J RIJCOSX Grid4 TightSCF
%maxcore 5000
%tddft
    Mode sTDDFT
    Ethresh 5.0
    maxcore 5000
end

%pal
  nprocs 6
  end
* xyz 0 1
   C       -1.81662         0.03459        -0.07857
   C       -1.72238        -0.50731         1.18626
   C       -0.54362        -0.52116         1.95570
   N        0.37130        -0.58808         2.64941
   C       -2.74385        -1.13147         1.92434
   N       -3.47968        -1.66109         2.63441
   C       -0.71926         0.68472        -0.78490
   C       -1.18082         1.09875        -2.05853
   C       -0.38426         1.75322        -2.96372
   C        0.94066         2.01493        -2.59606
   C        1.39568         1.59758        -1.32389
   C        0.58796         0.93523        -0.40783
   S        3.06311         2.02342        -1.07216
   C        3.12169         2.74660        -2.65841
   C        1.95583         2.67368        -3.34234
  Br        4.71711         3.53028        -3.26071
   C       -2.60086         0.72314        -2.19930
   O       -3.30327         0.93717        -3.17109
   C       -2.97296         0.06220        -0.94446
   C       -4.20578        -0.46949        -0.64284
   C       -5.39776        -0.48669        -1.37803
   S       -5.71904         0.44684        -2.82063
   C       -7.38104         0.04479        -2.73596
   C       -7.70967        -0.78000        -1.69917
   C       -9.08375        -1.29903        -1.43254
   C       -6.57434        -1.12415        -0.92632
   C       -6.61965        -2.02528         0.18771
   C       -5.63929        -2.90178         0.50224
   C       -5.60063        -3.66021         1.70365
   C       -4.56673        -4.46933         2.02412
   C       -4.41765        -5.06065         3.31502
   C       -3.38154        -5.80626         3.73376
   C       -2.25200        -6.26219         2.86514
   C       -3.26660        -6.20553         5.18995
   N       -3.77420        -5.20320         6.09474
   C       -3.37481        -3.91731         6.05555
   C       -3.82796        -2.93955         6.88577
   C       -3.36734        -1.61529         6.80837
   C       -3.74861        -0.59767         7.64426
   C       -3.28771         0.73918         7.62085
   C       -3.81477         1.53253         8.59465
   C       -4.73134         0.87202         9.44319
   S       -4.90435        -0.79890         8.96219
   C       -5.42430         1.40104        10.51680
   C       -5.34603         2.71507        11.02262
   C       -6.15055         2.92677        12.09793
   C       -6.92092         1.80036        12.50380
   S       -6.55860         0.44363        11.45574
   C       -7.79650         1.86973        13.55684
   C       -8.68636         0.92834        14.13676
   C       -9.50471         1.34143        15.20885
   O       -9.36367         2.64893        15.58397
   C       -9.50259         3.02616        16.93797
   C      -10.45758         0.46820        15.80688
   O      -11.24840         1.01979        16.77650
   C      -12.23132         0.21698        17.38150
   C      -10.57819        -0.84388        15.40436
   C       -9.76138        -1.30312        14.36633
   C       -8.82525        -0.42305        13.71857
   N       -8.15641        -1.04110        12.75817
   S       -8.64745        -2.57791        12.66746
   N       -9.74292        -2.53235        13.85278
   H       -0.76968         2.05623        -3.92465
   H        0.98404         0.64202         0.54987
   H        1.81430         3.06835        -4.33197
   H       -4.29245        -0.93848         0.33057
   H       -8.05150         0.42866        -3.48135
   H       -9.77914        -0.93253        -2.18277
   H       -9.42799        -0.97555        -0.45059
   H       -9.08826        -2.38807        -1.44941
   H       -7.51502        -1.99609         0.79566
   H       -4.80575        -3.02937        -0.17730
   H       -6.39770        -3.50135         2.41755
   H       -3.77718        -4.61537         1.30072
   H       -5.19126        -4.80754         4.02881
   H       -2.55287        -6.34011         1.82509
   H       -1.89089        -7.23509         3.19487
   H       -1.42040        -5.55840         2.92873
   H       -2.20863        -6.39875         5.41474
   H       -3.81491        -7.13611         5.36687
   H       -4.48728        -5.45677         6.75924
   H       -2.64202        -3.68510         5.29568
   H       -4.56154        -3.17559         7.64556
   H       -2.65189        -1.37554         6.03257
   H       -2.57541         1.06876         6.88469
   H       -3.57189         2.57188         8.72501
   H       -4.70478         3.46322        10.59107
   H       -6.22753         3.86420        12.62095
   H       -7.83343         2.84041        14.03519
   H       -8.93092         3.94993        17.04028
   H       -9.09221         2.27098        17.61158
   H      -10.54573         3.21487        17.19910
   H      -12.73536         0.86530        18.09699
   H      -11.78837        -0.63199        17.91157
   H      -12.95753        -0.14901        16.64930
   H      -11.28675        -1.52369        15.84317
*
