# ORCA input file
# SCF done       -183.541207396049          0.000702950975
! CAM-B3LYP def2-SVP def2/J RIJCOSX Grid4 TightSCF
%maxcore 5000
%tddft
    Mode sTDDFT
    Ethresh 5.0
    maxcore 5000
end

%pal
  nprocs 6
  end
* xyz 0 1
   C        6.32117        -2.36610       -10.03705
   C        7.11169        -3.33782        -9.56273
   C        8.51914        -3.51333        -9.78453
   C        9.04916        -4.59584        -9.17549
   C        8.11370        -5.36476        -8.42482
   S        6.52052        -4.64615        -8.52411
   C        8.35824        -6.51147        -7.70866
   C        9.59308        -7.19156        -7.55140
   C        9.51066        -8.30842        -6.78371
   C        8.20723        -8.57922        -6.28777
   S        7.08726        -7.35031        -6.83483
   C        7.83613        -9.63671        -5.49866
   C        6.52443        -9.84637        -5.04592
   O        5.53392        -8.96711        -5.37782
   C        5.96542       -10.84741        -4.26518
   C        6.25094       -12.07960        -3.54288
   O        7.27274       -12.70020        -3.38335
   N        5.00631       -12.44725        -3.01864
   C        3.95919       -11.58892        -3.32807
   O        2.81053       -11.74127        -2.97821
   C        4.58639       -10.54665        -4.13269
   C        4.35435        -9.37345        -4.83268
   C        3.18813        -8.60385        -5.04585
   C        1.99029        -8.94852        -4.50771
   C        0.79738        -8.20513        -4.65489
   S        0.83525        -6.64687        -5.44266
   C       -0.83641        -6.36653        -5.06824
   C       -1.37542        -7.42141        -4.34859
   C       -0.47591        -8.49316        -4.17694
   C       -0.91948        -9.82695        -3.63734
   C       -0.36895       -11.01547        -4.43836
   C       -2.45142        -9.87594        -3.67001
   C       -3.04592        -8.66640        -2.96909
   C       -2.74825        -7.37313        -3.73447
   C       -2.86622        -6.19212        -2.76228
   C       -1.49803        -5.19190        -5.53999
   C       -0.87093        -4.15155        -6.11780
   C       -1.52715        -2.92634        -6.53007
   C       -0.96448        -1.73984        -6.15853
   S       -1.95740        -0.36148        -6.41371
   C       -3.19166        -1.38240        -7.08387
   C       -2.81619        -2.73426        -7.15540
   C       -3.63834        -3.62450        -7.89240
   C       -3.05657        -4.93579        -8.35489
   C       -2.28207        -4.70654        -9.65706
   C       -4.88855        -3.21298        -8.33492
   C       -5.77524        -4.14670        -9.11918
   C       -6.58224        -5.06425        -8.19642
   C       -5.33710        -1.89332        -8.08407
   C       -6.57712        -1.23595        -8.43226
   C       -6.51955         0.10952        -8.19673
   S       -5.04696         0.65526        -7.51204
   C       -4.43223        -0.96975        -7.53892
   C       -7.80220        -1.85022        -8.88575
   C       -8.69872        -1.24759        -9.69090
   C       -9.93346        -1.84959       -10.07009
   O      -10.27272        -3.09550        -9.63905
   C      -10.95446        -1.37455       -10.86473
   C      -11.40510        -0.23766       -11.66552
   O      -10.88847         0.82280       -11.90625
   N      -12.65380        -0.64583       -12.13843
   C      -13.06236        -1.91601       -11.73749
   O      -14.10296        -2.43731       -12.04340
   C      -11.95069        -2.38756       -10.90604
   C      -11.49271        -3.43235       -10.13926
   C      -12.08937        -4.70364        -9.84068
   C      -11.51978        -5.63149        -9.07426
   H        6.72081        -1.58957       -10.66506
   H        5.27197        -2.32937        -9.80809
   H        9.06901        -2.81741       -10.39299
   H       10.08504        -4.87905        -9.23501
   H       10.50014        -6.83820        -8.00814
   H       10.33762        -8.95580        -6.55151
   H        8.57297       -10.36455        -5.19670
   H        4.87925       -13.28041        -2.46269
   H        3.29823        -7.72241        -5.66199
   H        1.94187        -9.82973        -3.88732
   H       -0.58711        -9.92123        -2.59628
   H       -0.31415       -10.77336        -5.49745
   H       -1.03426       -11.86786        -4.31750
   H        0.61333       -11.32315        -4.09735
   H       -2.79094       -10.79090        -3.18174
   H       -2.78681        -9.90231        -4.70987
   H       -2.61640        -8.59762        -1.96687
   H       -4.12589        -8.78114        -2.85995
   H       -3.48855        -7.24896        -4.53519
   H       -2.10376        -6.27243        -1.99012
   H       -3.84340        -6.20824        -2.28406
   H       -2.74135        -5.23532        -3.25983
   H       -2.57314        -5.16655        -5.42111
   H        0.21050        -4.15220        -6.16879
   H       -0.01558        -1.61062        -5.67448
   H       -2.36431        -5.33494        -7.62077
   H       -3.83176        -5.68207        -8.51414
   H       -1.86686        -5.64509       -10.01682
   H       -1.46390        -4.01049        -9.48666
   H       -2.92584        -4.29089       -10.42941
   H       -5.17818        -4.75668        -9.79604
   H       -6.45168        -3.55926        -9.74064
   H       -5.92416        -5.73507        -7.64865
   H       -7.27971        -5.66423        -8.77729
   H       -7.14216        -4.48675        -7.46367
   H       -7.31267         0.81657        -8.34250
   H       -8.03794        -2.83370        -8.50897
   H       -8.52250        -0.27087       -10.11545
   H      -13.22300        -0.06130       -12.73391
   H      -13.05799        -4.85359       -10.29525
   H      -10.55522        -5.47013        -8.62316
   H      -12.00347        -6.57081        -8.87481
*
