# ORCA input file
# SCF done       -169.363136338592          0.000607930830
! CAM-B3LYP def2-SVP def2/J RIJCOSX Grid4 TightSCF
%maxcore 5000
%tddft
    Mode sTDDFT
    Ethresh 5.0
    maxcore 5000
end

%pal
  nprocs 6
  end
* xyz 0 1
   C        4.40407       -11.13554        -6.40880
   C        4.97308       -10.09240        -5.79295
   C        5.69435        -9.00393        -6.39055
   C        6.10574        -8.06051        -5.51762
   C        5.74214        -8.31046        -4.16238
   S        4.91055        -9.84933        -4.03995
   C        5.93420        -7.49638        -3.07892
   C        6.58361        -6.23297        -3.07090
   C        6.60867        -5.64591        -1.85434
   C        5.98712        -6.39721        -0.80381
   S        5.37216        -7.90784        -1.46143
   C        5.90470        -5.90729         0.46255
   C        5.35177        -6.39006         1.69986
   C        4.96914        -7.71340         1.97156
   O        5.08745        -8.66677         0.98502
   C        6.05981        -9.67872         1.19786
   C        7.48421        -9.13505         1.19806
   C        4.47292        -8.06147         3.24398
   C        4.37552        -7.07978         4.22510
   C        4.75288        -5.76405         3.97351
   C        5.23510        -5.43065         2.72275
   O        4.60329        -4.89477         5.01446
   C        4.94416        -3.54564         4.81491
   C        4.03479        -9.41592         3.53012
   C        4.12496        -9.97836         4.75843
   C        3.68682       -11.26260         5.17041
   C        2.96475       -12.19900         4.48236
   C        2.55409       -13.45821         5.00605
   C        1.82578       -14.22196         4.15045
   C        1.61485       -13.62325         2.88718
   S        2.37620       -12.04072         2.83650
   C        0.95868       -14.10721         1.78028
   C        0.36955       -15.37831         1.56161
   C       -0.12105       -15.53685         0.30721
   C        0.04812       -14.40884        -0.55527
   S        0.85247       -13.12955         0.33416
   C       -0.42386       -14.33573        -1.83150
   C       -0.39862       -13.24392        -2.76768
   C        0.56297       -12.20111        -2.72611
   O        1.63001       -12.47098        -1.94131
   C        2.80905       -11.69048        -1.90173
   C        3.95985       -12.60773        -1.51422
   C        0.39375       -11.06870        -3.53890
   C       -0.61049       -11.07608        -4.51531
   C       -1.47395       -12.15048        -4.65309
   C       -1.38068       -13.20867        -3.75694
   O       -2.46412       -12.24370        -5.58945
   C       -2.60439       -11.19551        -6.51622
   C        1.15921        -9.84824        -3.35629
   C        1.56695        -9.01877        -4.34182
   C        2.26520        -7.81569        -4.08187
   C        2.84515        -7.03565        -5.03689
   C        3.59583        -5.84610        -4.83012
   C        4.14174        -5.32422        -5.95597
   C        3.86041        -6.06572        -7.13404
   S        2.82446        -7.42862        -6.75553
   C        4.32110        -5.83406        -8.40452
   C        5.15621        -4.77083        -8.84722
   C        5.45889        -4.80698       -10.16332
   C        4.88387        -5.91214       -10.87610
   S        3.93632        -6.89759        -9.74971
   C        5.00809        -6.20111       -12.17830
   H        4.46012       -11.23568        -7.47811
   H        3.87159       -11.89401        -5.86450
   H        5.85363        -8.97247        -7.45392
   H        6.64554        -7.17263        -5.79675
   H        7.00476        -5.80342        -3.96251
   H        7.05219        -4.68572        -1.65300
   H        6.33287        -4.91394         0.55882
   H        5.91341       -10.37157         0.36603
   H        5.86372       -10.20277         2.14183
   H        7.69698        -8.62922         0.25967
   H        8.18705        -9.95380         1.32577
   H        7.61659        -8.42643         2.01369
   H        3.96810        -7.31523         5.19441
   H        5.52873        -4.41705         2.49885
   H        4.73605        -3.04596         5.75968
   H        4.33836        -3.08997         4.02463
   H        6.00567        -3.42936         4.57208
   H        3.62929        -9.96706         2.69435
   H        4.61125        -9.40345         5.53715
   H        3.94163       -11.53923         6.18654
   H        2.81573       -13.75073         6.00831
   H        1.43264       -15.19502         4.38700
   H        0.34360       -16.13434         2.32684
   H       -0.59906       -16.43364        -0.04803
   H       -0.98193       -15.20224        -2.16683
   H        2.71311       -10.89813        -1.15074
   H        2.99661       -11.23932        -2.88056
   H        4.04002       -13.43036        -2.21973
   H        3.79372       -13.01292        -0.52029
   H        4.88508       -12.03952        -1.52292
   H       -0.71419       -10.19576        -5.12815
   H       -2.10616       -14.00365        -3.82562
   H       -1.69119       -11.05050        -7.10250
   H       -2.87190       -10.25477        -6.02346
   H       -3.41416       -11.49539        -7.17956
   H        1.37186        -9.56322        -2.33542
   H        1.42041        -9.28552        -5.38096
   H        2.38058        -7.51134        -3.04979
   H        3.71294        -5.43090        -3.84430
   H        4.74745        -4.43556        -5.98039
   H        5.50000        -4.01108        -8.16714
   H        6.07437        -4.08755       -10.67408
   H        5.59375        -5.57281       -12.82592
   H        4.53181        -7.05904       -12.61583
*
