# ORCA input file
# SCF done       -148.527555263731          0.000682436186
! CAM-B3LYP def2-SVP def2/J RIJCOSX Grid4 TightSCF
%maxcore 5000
%tddft
    Mode sTDDFT
    Ethresh 5.0
    maxcore 5000
end

%pal
  nprocs 6
  end
* xyz 0 1
   C        2.24253         3.19611         3.09706
   C        1.49510         2.38703         3.85921
   C        0.57850         2.75880         4.89985
   C       -0.03369         1.71794         5.50419
   C        0.34270         0.44034         4.99982
   S        1.51485         0.62274         3.70719
   C       -0.09718        -0.78726         5.42502
   C       -1.01653        -1.07399         6.46713
   C       -1.22704        -2.39828         6.66654
   C       -0.48976        -3.25898         5.80275
   S        0.46480        -2.28186         4.69552
   C       -0.48751        -4.62356         5.88426
   C        0.23420        -5.56637         5.11027
   C        0.88923        -5.33378         3.94803
   C        1.64893        -6.32039         3.23382
   C        2.10707        -6.12720         1.94907
   S        3.00524        -7.45003         1.34006
   C        2.80358        -8.30802         2.84605
   C        2.05815        -7.58292         3.73524
   C        3.41275        -9.57492         3.05369
   S        3.35045       -10.37312         4.60128
   C        4.32484       -11.73750         4.09413
   C        4.66950       -11.56000         2.76060
   C        4.16387       -10.35341         2.20277
   O        4.56093       -10.20730         0.92051
   C        5.32844       -11.29605         0.65255
   C        5.43931       -12.14314         1.70366
   C        4.65074       -12.84593         4.94908
   C        4.75422       -12.76226         6.35408
   C        4.50195       -11.49700         7.11166
   C        5.12700       -13.88898         7.05323
   C        5.39618       -15.12643         6.44872
   C        5.26214       -15.21455         5.04306
   C        4.90128       -14.08636         4.34079
   C        5.49573       -16.49774         4.30506
   C        5.79319       -16.26140         7.22647
   C        5.95263       -16.29221         8.57801
   C        6.35177       -17.46198         9.25356
   C        6.52350       -17.55495        10.61108
   C        6.92356       -18.72986        11.35664
   C        7.21185       -19.97440        10.85320
   C        7.59222       -21.07941        11.64164
   N        7.90556       -22.01917        12.22270
   C        7.17531       -20.34168         9.49279
   N        7.17313       -20.72930         8.41101
   C        6.97112       -18.36561        12.77015
   C        6.61415       -17.00202        12.90053
   C        6.31995       -16.44255        11.56558
   O        5.98072       -15.29909        11.33238
   C        6.56606       -16.35887        14.11276
   C        6.88435       -17.09832        15.25658
   C        7.23869       -18.46092        15.11838
   C        7.28882       -19.11040        13.89086
   S        7.59088       -19.18867        16.65725
   C        7.26206       -17.67229        17.45298
   C        6.90736       -16.67148        16.61275
  Br        7.41961       -17.55264        19.31847
   H        2.20118         4.26338         3.22466
   H        2.90213         2.81097         2.34133
   H        0.42254         3.79383         5.14767
   H       -0.74767         1.81472         6.30304
   H       -1.48340        -0.29332         7.04061
   H       -1.88450        -2.80231         7.41678
   H       -1.09385        -5.03538         6.68217
   H        0.22688        -6.57497         5.50271
   H        0.83840        -4.36177         3.48036
   H        1.94960        -5.26738         1.32835
   H        1.83816        -7.94402         4.72341
   H        5.74277       -11.34933        -0.33566
   H        6.00932       -13.04842         1.72716
   H        3.43890       -11.25770         7.11323
   H        5.03430       -10.65807         6.66722
   H        4.82655       -11.60692         8.14326
   H        5.21898       -13.80683         8.12455
   H        4.77211       -14.16057         3.27234
   H        4.83396       -17.28219         4.66960
   H        6.52416       -16.83463         4.43068
   H        5.30955       -16.36236         3.24266
   H        5.98888       -17.17792         6.68553
   H        5.77682       -15.41780         9.18296
   H        6.52875       -18.34053         8.64612
   H        6.29063       -15.31772        14.17672
   H        7.56481       -20.15037        13.84070
   H        6.67078       -15.67333        16.93375
*
