# ORCA input file
# SCF done       -197.645553443663          0.000280388655
! CAM-B3LYP def2-SVP def2/J RIJCOSX Grid4 TightSCF
%maxcore 5000
%tddft
    Mode sTDDFT
    Ethresh 5.0
    maxcore 5000
end

%pal
  nprocs 6
  end
* xyz 0 1
   C       -6.84818        -1.98591       -10.90737
   S       -5.23411        -2.50774       -10.96258
   C       -5.45928        -3.62955        -9.65207
   C       -6.78441        -3.57520        -9.18971
   C       -7.57288        -2.62539        -9.92029
   C       -8.93415        -2.44916        -9.57523
   F       -9.65619        -1.55280       -10.27518
   C       -9.50307        -3.15511        -8.55951
   C       -8.72803        -4.07491        -7.82900
   C       -7.41405        -4.27746        -8.13937
   F       -6.71025        -5.17764        -7.42584
   C       -4.40676        -4.42733        -9.15435
   C       -3.11697        -4.36569        -9.57968
   C       -2.04643        -5.14313        -9.07051
   N       -0.95977        -5.30679        -9.81954
   C       -0.18667        -6.19643        -9.17356
   C       -0.81699        -6.62966        -7.91967
   C        0.03415        -7.60013        -7.21269
   O       -0.17669        -8.16087        -6.15877
   C        1.19843        -7.71070        -8.11132
   C        1.02387        -6.84257        -9.29204
   N        2.10358        -6.91843       -10.10606
   C        2.92242        -7.75486        -9.51121
   C        2.42546        -8.27792        -8.25862
   C       -1.98131        -5.92051        -7.80328
   C       -2.86800        -5.91762        -6.68035
   C       -3.57115        -4.84345        -6.26616
   C       -4.51361        -4.78963        -5.17985
   C       -5.20347        -3.61305        -4.96984
   C       -6.17316        -3.52429        -3.95655
   C       -6.98195        -2.46800        -3.54901
   C       -6.99296        -1.09360        -4.12425
   C       -8.34921        -0.73600        -4.75818
   N       -8.51803        -1.45585        -6.01195
   C       -6.58916        -0.03519        -3.08039
   N       -6.38488         1.24573        -3.73606
   C       -7.77759        -2.95230        -2.44895
   C       -8.69339        -2.35558        -1.66089
   C       -9.39266        -3.09452        -0.57517
   C       -8.91702        -4.49438        -0.35272
   C       -8.00487        -5.08302        -1.15379
   C       -7.40872        -4.36028        -2.20840
   C       -6.43645        -4.69310        -3.13279
   C       -5.71604        -5.88639        -3.36477
   C       -4.78644        -5.92710        -4.35274
   C      -10.84125        -3.24410        -0.95424
   C      -11.86313        -2.88675        -0.16169
   C      -13.22514        -3.08500        -0.54046
   N      -13.55868        -3.64526        -1.69422
   C      -14.90532        -3.65417        -1.72396
   C      -15.47441        -3.05255        -0.51041
   C      -16.94194        -3.08106        -0.56520
   O      -17.73951        -2.67311         0.25649
   C      -17.20713        -3.72737        -1.86226
   C      -15.93968        -4.05769        -2.53807
   N      -16.17375        -4.65372        -3.73194
   C      -17.48194        -4.71335        -3.83270
   C      -18.18766        -4.15531        -2.70174
   C      -14.40143        -2.68330         0.26774
   C      -14.33791        -2.05801         1.54150
   C      -15.44787        -1.64609         2.20341
   C      -15.54518        -1.02373         3.47489
   S      -17.11070        -1.13242         4.21234
   C      -16.61557        -0.35181         5.66369
   C      -15.27015         0.02799         5.57424
   C      -14.65710        -0.33725         4.32313
   C      -13.32779         0.09145         4.11008
   F      -12.71275        -0.13297         2.92892
   C      -12.61565         0.76630         5.05955
   C      -13.19948         1.07309         6.29689
   C      -14.49394         0.71705         6.53424
   F      -15.03942         1.04995         7.72173
   C      -17.52790        -0.16368         6.75293
   C      -18.80271        -0.55638         6.73711
   H       -7.20488        -1.24072       -11.59042
   H      -10.54223        -3.01025        -8.31479
   H       -9.16903        -4.62348        -7.01404
   H       -4.67698        -5.13339        -8.38408
   H       -2.85484        -3.73073       -10.41742
   H        3.86909        -7.99917        -9.96133
   H        2.94288        -8.96567        -7.61916
   H       -2.87693        -6.84032        -6.11655
   H       -3.44360        -3.91021        -6.80224
   H       -5.00505        -2.75808        -5.60122
   H       -6.24616        -1.05499        -4.92508
   H       -8.37941         0.35808        -4.87531
   H       -9.16342        -1.03873        -4.09731
   H       -7.84450        -1.12566        -6.69602
   H       -9.44382        -1.28347        -6.38744
   H       -5.69765        -0.39958        -2.54226
   H       -7.39051         0.09485        -2.35082
   H       -5.58557         1.19872        -4.35981
   H       -6.19920         1.97001        -3.05160
   H       -8.99764        -1.32828        -1.79898
   H       -9.33221        -2.51746         0.35645
   H       -9.38274        -5.02910         0.46020
   H       -7.69850        -6.10419        -0.97918
   H       -5.91159        -6.75440        -2.75273
   H       -4.23298        -6.83568        -4.52668
   H      -11.04531        -3.71101        -1.90628
   H      -11.67613        -2.41712         0.79412
   H      -17.93908        -5.15037        -4.70365
   H      -19.25307        -4.10911        -2.59053
   H      -13.35909        -1.93608         1.97172
   H      -16.40857        -1.86210         1.74902
   H      -11.60452         1.07094         4.84391
   H      -12.64062         1.60140         7.05139
   H      -17.13256         0.32971         7.62761
   H      -19.23375        -1.05124         5.88213
   H      -19.44909        -0.39035         7.57974
*
