# ORCA input file
# SCF done       -180.896315854137          0.000298671049
! CAM-B3LYP def2-SVP def2/J RIJCOSX Grid4 TightSCF
%maxcore 5000
%tddft
    Mode sTDDFT
    Ethresh 5.0
    maxcore 5000
end

%pal
  nprocs 6
  end
* xyz 0 1
   C        5.26334        -6.08370        -4.47421
   C        5.78065        -6.87851        -5.64451
   O        5.37093        -6.79481        -6.77967
   C        6.86545        -7.70587        -5.10060
   C        6.91456        -7.54334        -3.71508
   C        5.83307        -6.65833        -3.29388
   C        5.37916        -6.50267        -2.00244
   C        4.16784        -5.85356        -1.69040
   N        3.18355        -5.34165        -1.39701
   C        5.94365        -7.13410        -0.87096
   N        6.35563        -7.60002         0.09296
   C        7.90249        -8.17775        -2.95407
   C        8.80163        -8.99227        -3.59381
   C        8.75436        -9.21187        -4.98647
   C        7.77231        -8.54532        -5.77666
   C        7.74512        -8.75325        -7.17037
   C        8.64726        -9.59813        -7.75599
   C        9.60664       -10.26868        -6.98005
   C        9.66048       -10.08080        -5.62651
   C        4.47914        -4.99849        -4.73735
   C        4.09065        -3.87645        -3.97414
   C        2.95138        -3.04335        -4.39095
   N        2.68865        -2.04653        -3.60082
   C        3.63137        -2.09721        -2.62297
   C        4.56539        -3.21800        -2.84746
   C        5.54901        -3.22911        -1.80337
   S        6.82958        -4.25559        -1.59833
   C        5.15656        -2.17088        -0.91523
   C        3.98737        -1.47943        -1.44880
   N        3.58778        -0.48675        -0.59661
   C        4.36190        -0.57533         0.43848
   C        5.37431        -1.64331         0.34848
   C        6.32161        -2.02038         1.32006
   C        6.27369        -1.86462         2.72378
   C        7.40339        -2.44328         3.37623
   N        7.57149        -2.43125         4.70300
   C        6.63793        -1.86844         5.42611
   C        5.46262        -1.31221         4.89535
   C        5.26793        -1.31571         3.53585
   C        8.31141        -3.04912         2.47093
   S        7.75926        -2.86559         0.84790
   C        9.44850        -3.81171         2.78128
   C        9.95757        -4.06517         4.14479
   N       10.94741        -4.89842         4.19530
   C       11.18917        -5.27425         2.90292
   C       10.28409        -4.56888         1.97804
   C       10.55209        -4.97747         0.62998
   S        9.92148        -4.43388        -0.79025
   C       11.56639        -5.99475         0.76563
   C       11.95697        -6.14391         2.17195
   N       12.90220        -7.12145         2.29910
   C       13.13232        -7.55043         1.09583
   C       12.32260        -6.89339         0.05462
   C       12.26742        -7.18383        -1.33576
   C       13.24677        -7.67877        -2.12922
   C       12.92093        -8.25242        -3.46820
   O       11.85681        -8.15899        -4.04007
   C       14.12498        -8.99833        -3.86972
   C       15.12528        -8.82652        -2.90972
   C       14.66542        -7.87665        -1.90259
   C       15.45935        -7.13032        -1.07558
   C       14.99372        -6.00600        -0.35811
   N       14.68506        -5.04011         0.17884
   C       16.85039        -7.31994        -0.93368
   N       17.97870        -7.44982        -0.77161
   C       16.35283        -9.49044        -3.03004
   C       16.55883       -10.29994        -4.11669
   C       15.58432       -10.46452        -5.12581
   C       14.32948        -9.79776        -5.01198
   C       13.36916        -9.94591        -6.03321
   C       13.63980       -10.73101        -7.12010
   C       14.86806       -11.40168        -7.23108
   C       15.81999       -11.27159        -6.25715
   H        7.96525        -8.01864        -1.88977
   H        9.57776        -9.48571        -3.02777
   H        7.00075        -8.23779        -7.75659
   H        8.62482        -9.75842        -8.82376
   H       10.30187       -10.93992        -7.46265
   H       10.39591       -10.59470        -5.02527
   H        4.12202        -4.97214        -5.76597
   H        2.35419        -3.22515        -5.26765
   H        4.28524         0.14416         1.23377
   H        6.81227        -1.86718         6.49361
   H        4.71949        -0.89886         5.55824
   H        4.35938        -0.92564         3.10527
   H        9.54853        -3.60841         5.02781
   H       13.82649        -8.35565         0.92756
   H       11.30358        -7.02801        -1.81341
   H       17.11679        -9.37879        -2.27788
   H       17.49586       -10.82747        -4.22037
   H       12.43073        -9.42186        -5.94293
   H       12.90910       -10.83580        -7.90805
   H       15.05828       -12.01857        -8.09671
   H       16.76937       -11.77958        -6.34390
*
