# ORCA input file
# SCF done       -207.225106482600          0.000641354101
! CAM-B3LYP def2-SVP def2/J RIJCOSX Grid4 TightSCF
%maxcore 5000
%tddft
    Mode sTDDFT
    Ethresh 5.0
    maxcore 5000
end

%pal
  nprocs 6
  end
* xyz 0 1
   C       -0.91054         5.09778        13.76885
   C        0.21308         5.57015        13.23010
   C        0.35373         5.92743        11.84977
   O        1.54728         6.40256        11.41479
   C        1.45094         6.67018        10.08679
   C        0.16260         6.35823         9.66164
   C       -0.53928         5.88457        10.78815
   O       -1.82660         5.47331        10.81545
   O       -0.39217         6.46074         8.42382
   C        2.54933         7.17997         9.35371
   C        3.76905         7.43973         9.89776
   C        4.90571         7.93466         9.20973
   C        4.92952         8.38854         7.92562
   C        6.06578         8.86902         7.22827
   C        6.01732         9.76590         6.18926
   C        7.35204        10.18157         5.88186
   C        7.69142        11.08121         4.86472
   N        7.96083        11.82516         4.03193
   C        8.23566         9.55225         6.73892
   C        7.49576         8.66317         7.56350
   C        8.02363         7.65492         8.34685
   C        9.38418         7.59449         8.92141
   C        9.54156         6.34299         9.45994
   C        8.33496         5.59348         9.24436
   C        7.41127         6.39357         8.60800
   C        8.14748         4.26030         9.62570
   N        7.99995         3.16656         9.94518
   C       10.27377         8.70282         9.00510
   C       11.58129         8.60606         9.34657
   C       12.53650         9.67410         9.40437
   C       13.85952         9.36169         9.66913
   C       14.84343        10.36104         9.67460
   C       16.22096        10.29062         9.87265
   C       17.00085         9.05229        10.16183
   C       18.05371         8.77941         9.07515
   N       17.45434         8.94595         7.76234
   C       17.63839         9.10538        11.56131
   N       16.58724         9.01948        12.55877
   C       16.73241        11.62982         9.71791
   C       17.98334        12.13023         9.75830
   C       18.26681        13.56716         9.48467
   C       17.05433        14.41218         9.27344
   C       15.80721        13.90532         9.24869
   C       15.59514        12.51945         9.43707
   C       14.45560        11.73765         9.41342
   C       13.09586        12.04074         9.17777
   C       12.17583        11.04230         9.17182
   C       19.13772        14.13841        10.57929
   C       20.46092        14.26042        10.47654
   C       21.34406        14.78553        11.48994
   C       22.61217        14.34057        11.71197
   C       23.14005        15.00336        12.88547
   C       24.43219        14.81577        13.38607
   N       25.49394        14.64668        13.79162
   C       22.17547        15.83283        13.39608
   C       21.02893        15.77102        12.53430
   C       19.96051        16.64346        12.56534
   C       19.53383        17.49535        13.70371
   C       18.67773        18.44382        13.20086
   C       18.49282        18.19770        11.80140
   C       19.22662        17.08919        11.43100
   C       17.68853        18.96493        10.95011
   N       17.02216        19.58745        10.25166
   C       19.80762        17.30683        15.08024
   C       20.23315        16.15724        15.67564
   C       20.51017        16.06244        17.05623
   C       20.91923        14.91365        17.66098
   C       21.23977        14.80590        19.03120
   O       21.17499        15.87318        19.87048
   C       21.55432        15.46895        21.10959
   C       21.86695        14.11504        21.07150
   C       21.66737        13.68716        19.74600
   O       21.84591        12.44594        19.25133
   O       22.29033        13.29243        22.06977
   C       21.59154        16.38234        22.19989
   C       21.27059        17.69049        22.10880
   C       21.31898        18.59689        23.21755
   C       21.00652        19.89049        23.12709
   H       -0.96554         4.84312        14.81207
   H       -1.79696         4.95726        13.17674
   H        1.10647         5.71325        13.82205
   H       -2.18266         5.55624         9.92085
   H        0.26229         6.79128         7.79961
   H        2.37108         7.35431         8.30101
   H        3.89325         7.22813        10.95060
   H        5.82240         7.96956         9.78266
   H        3.99539         8.49220         7.38723
   H        5.13512        10.14749         5.70958
   H        9.30528         9.60926         6.67225
   H       10.39448         5.96349         9.98998
   H        6.44424         6.08447         8.26134
   H        9.84885         9.66853         8.77524
   H       11.98157         7.62262         9.55702
   H       14.13412         8.33452         9.86256
   H       16.30167         8.21047        10.17195
   H       18.47408         7.77244         9.24525
   H       18.87459         9.49658         9.15197
   H       16.65812         8.32583         7.65708
   H       18.12296         8.71998         7.03453
   H       18.25581        10.01412        11.65069
   H       18.29146         8.23726        11.69285
   H       15.95295         9.80646        12.46464
   H       16.97648         9.03714        13.49450
   H       18.84753        11.51803         9.97171
   H       18.86126        13.58835         8.55616
   H       17.22883        15.46835         9.13223
   H       14.95588        14.54828         9.07915
   H       12.80134        13.06413         8.99708
   H       11.13987        11.28037         8.98836
   H       18.61466        14.43807        11.47585
   H       20.96148        13.88861         9.58882
   H       23.14876        13.60398        11.14264
   H       22.29885        16.51171        14.21724
   H       18.17812        19.21633        13.75498
   H       19.33925        16.71860        10.43109
   H       19.57722        18.15400        15.71652
   H       20.36245        15.26094        15.08405
   H       20.41009        16.95633        17.65709
   H       21.03125        14.00068        17.09424
   H       22.16496        11.87981        19.96651
   H       22.37527        13.79157        22.88877
   H       21.90429        15.97219        23.15245
   H       20.96114        18.08752        21.15269
   H       21.62912        18.18116        24.16816
   H       20.69324        20.32857        22.19404
   H       21.05077        20.54815        23.97730
*
