# ORCA input file
# SCF done       -191.549334359005          0.000611273698
! CAM-B3LYP def2-SVP def2/J RIJCOSX Grid4 TightSCF
%maxcore 5000
%tddft
    Mode sTDDFT
    Ethresh 5.0
    maxcore 5000
end

%pal
  nprocs 6
  end
* xyz 0 1
   C       -9.66052         9.11232        -2.64118
   C       -9.02322        10.28528        -2.94550
   C       -9.64597        11.38746        -3.57061
   N      -10.09111        12.31478        -4.07938
   C       -7.66704        10.56834        -2.67593
   N       -6.57678        10.87242        -2.48323
   C      -11.06613         8.81891        -2.87501
   C      -11.36193         7.53288        -2.35483
   C      -12.61615         6.97490        -2.42845
   C      -13.62795         7.72010        -3.03976
   C      -13.32345         9.00325        -3.55850
   C      -12.05590         9.56693        -3.48671
   S      -14.72120         9.73837        -4.27652
   C      -15.68093         8.35441        -3.88412
   C      -14.99484         7.38163        -3.24484
   C      -10.14826         6.93949        -1.77464
   O      -10.03182         5.82302        -1.32177
   C       -9.07444         7.96257        -1.96585
   C       -7.76348         7.75926        -1.68764
   C       -7.24584         6.68038        -0.91095
   C       -5.98516         5.97977        -1.19653
   N       -5.70478         5.02201        -0.36480
   C       -6.71022         5.02626         0.55432
   C       -7.70121         6.07712         0.23470
   C       -8.70931         6.13501         1.26574
   S       -9.90739         7.24233         1.43511
   C       -8.36210         5.05811         2.16014
   C       -7.12362         4.39346         1.69332
   N       -6.77969         3.37190         2.52786
   C       -7.68789         3.35417         3.45579
   C       -8.71862         4.38876         3.30328
   C       -9.79528         4.56291         4.21549
   O      -10.67316         5.59407         4.06397
   C      -11.53390         5.46795         5.09174
   C      -11.13309         4.32067         5.84616
   N      -10.02825         3.79775         5.24176
   C      -11.81843         3.90490         6.97686
   C      -12.90732         4.69237         7.31341
   C      -13.27981         5.84337         6.54852
   C      -12.61285         6.26660         5.41576
   O      -14.35974         6.38604         7.14137
   C      -14.61484         5.58029         8.21737
   N      -13.79063         4.58164         8.34633
   C      -15.71066         5.90067         9.06911
   C      -16.04425         5.12574        10.12645
   C      -17.10031         5.39787        11.03546
   C      -17.43904         4.49882        12.15426
   N      -18.39894         4.91827        12.91651
   C      -18.77856         6.12177        12.39495
   C      -17.99135         6.43988        11.18101
   C      -18.41395         7.71617        10.66292
   S      -18.01880         8.43553         9.23340
   C      -19.35519         8.20996        11.63500
   C      -19.61300         7.16933        12.65524
   N      -20.54838         7.59712        13.54874
   C      -20.86316         8.79965        13.18064
   C      -20.12901         9.28652        11.99957
   C      -20.30037        10.57969        11.43590
   C      -19.42293        11.31730        10.71370
   C      -18.00862        11.16962        10.43208
   C      -17.06126        10.62927        11.26203
   C      -15.68491        10.58105        10.95782
   N      -14.55952        10.49345        10.75135
   C      -17.34412        10.08092        12.52739
   N      -17.51777         9.63863        13.57274
   C      -17.73863        11.91676         9.21115
   C      -18.87383        12.70983         8.89637
   C      -19.93632        12.45199         9.88037
   O      -21.01595        12.98289         9.98453
   C      -18.90473        13.54689         7.80589
   C      -17.77434        13.59133         6.98485
   C      -16.65634        12.77856         7.29729
   C      -16.61812        11.94033         8.40494
   S      -15.38674        12.98194         6.13410
   C      -16.33671        14.13451         5.26162
   C      -17.55175        14.35966         5.80736
   H      -12.80741         5.99329        -2.02349
   H      -11.87369        10.54409        -3.90182
   H      -16.71708         8.35428        -4.16195
   H      -15.42675         6.45076        -2.92484
   H       -7.01726         8.43497        -2.08844
   H       -5.33921         6.19536        -2.03002
   H       -7.66824         2.63862         4.25771
   H      -11.52575         3.04269         7.54841
   H      -12.89960         7.13206         4.84447
   H      -16.25753         6.79895         8.82165
   H      -15.46252         4.23207        10.30928
   H      -16.95204         3.55817        12.34651
   H      -21.59112         9.37431        13.72632
   H      -21.28649        11.02027        11.55716
   H      -19.77615        14.14591         7.59160
   H      -15.75256        11.32925         8.60038
   H      -15.91959        14.57851         4.37866
   H      -18.27668        15.04220         5.40239
*
