# ORCA input file
# SCF done       -181.106690266330          0.000503097601
! CAM-B3LYP def2-SVP def2/J RIJCOSX Grid4 TightSCF
%maxcore 5000
%tddft
    Mode sTDDFT
    Ethresh 5.0
    maxcore 5000
end

%pal
  nprocs 6
  end
* xyz 0 1
   C       -4.38449        -3.16882        -2.41427
   C       -3.30910        -4.02221        -2.34904
   C       -1.97926        -3.58247        -2.45593
   N       -0.87742        -3.26873        -2.54874
   C       -3.36011        -5.42206        -2.20070
   N       -3.31398        -6.56539        -2.09072
   C       -4.30270        -1.72582        -2.59255
   C       -5.61470        -1.20083        -2.69885
   C       -5.86174         0.13891        -2.86942
   C       -4.76620         1.00778        -2.90596
   C       -3.46162         0.47548        -2.79178
   C       -3.21072        -0.88054        -2.64428
   S       -2.25864         1.72542        -2.85367
   C       -3.48960         2.92923        -3.01731
   C       -4.74327         2.42501        -3.03221
   C       -6.58560        -2.30075        -2.55925
   O       -7.79152        -2.25020        -2.73159
   C       -5.78659        -3.50666        -2.28273
   C       -6.30036        -4.74810        -2.00885
   C       -7.59775        -5.08058        -1.57818
   S       -8.02517        -6.77829        -1.80288
   C       -9.60150        -6.52223        -1.18632
   C       -9.79151        -5.24437        -0.78210
   C       -8.65956        -4.40626        -0.97088
   S       -8.89207        -2.77989        -0.39157
   C       -7.36151        -2.00893         0.02586
   C       -6.22618        -2.70328         0.32762
   C       -5.00692        -2.00109         0.51767
   C       -3.69723        -2.41119         0.71835
   C       -3.11123        -3.72060         1.14936
   C       -2.53727        -3.55123         2.57548
   N       -3.49108        -2.88063         3.44438
   C       -4.09373        -4.89890         1.09310
   N       -3.41636        -6.15442         1.38390
   C       -2.87607        -1.22082         0.64297
   C       -1.53704        -1.06435         0.60201
   C       -0.92837         0.29090         0.64156
   C       -1.89520         1.43035         0.51408
   C       -3.22324         1.24374         0.42846
   C       -3.75956        -0.06282         0.48922
   C       -5.04589        -0.54639         0.38398
   C       -6.27054         0.13085         0.18422
   C       -7.40806        -0.58460         0.00808
   C        0.21478         0.54266        -0.29970
   C        0.56737        -0.16914        -1.36915
   C        1.65777         0.24691        -2.21743
   S        2.14330         1.92324        -2.23510
   C        3.36835         1.61948        -3.40115
   C        3.42064         0.31431        -3.75336
   C        2.45376        -0.47254        -3.07698
   S        2.39446        -2.19937        -3.44767
   C        1.99824        -2.91628        -1.94452
   C        1.64448        -4.20799        -1.73057
   C        1.66136        -5.36146        -2.60044
   C        2.53722        -5.60013        -3.62871
   C        2.50143        -6.74440        -4.45054
   N        2.51687        -7.64416        -5.16382
   C        3.65728        -4.79520        -3.90839
   N        4.61893        -4.20525        -4.12368
   C        0.70454        -6.31811        -2.06464
   C        0.25998        -5.86178        -0.79508
   C        0.83592        -4.53458        -0.52744
   O        0.62662        -3.80650         0.42330
   C       -0.59260        -6.60143        -0.01017
   C       -1.03003        -7.83447        -0.50372
   C       -0.62251        -8.25239        -1.79174
   C        0.24649        -7.51226        -2.58341
   S       -1.32413        -9.77969        -2.21169
   C       -2.11928        -9.86318        -0.67885
   C       -1.88065        -8.79462         0.11165
   H       -6.87167         0.50819        -2.95628
   H       -2.19744        -1.23150        -2.56584
   H       -3.19351         3.95721        -3.09698
   H       -5.63104         3.02373        -3.12913
   H       -5.64760        -5.60374        -2.13593
   H      -10.29668        -7.33753        -1.14961
   H      -10.70372        -4.87659        -0.34762
   H       -6.27324        -3.77481         0.40876
   H       -2.26273        -3.97523         0.50188
   H       -1.64686        -2.92189         2.52849
   H       -2.22271        -4.54108         2.94195
   H       -3.10314        -2.77772         4.37528
   H       -4.34689        -3.41912         3.52371
   H       -4.48889        -4.96808         0.07805
   H       -4.93363        -4.70881         1.77823
   H       -3.41639        -6.34736         2.37903
   H       -3.88048        -6.92242         0.91533
   H       -0.85529        -1.90486         0.59495
   H       -0.49611         0.36199         1.65825
   H       -1.46288         2.41876         0.48509
   H       -3.89385         2.08428         0.31824
   H       -6.28170         1.21008         0.15330
   H       -8.35851        -0.10935        -0.17811
   H        0.77029         1.44569        -0.07569
   H        0.05766        -1.08473        -1.63871
   H        3.98100         2.42887        -3.74364
   H        4.11587        -0.10436        -4.45756
   H        1.90540        -2.23585        -1.11013
   H       -0.93265        -6.24251         0.94795
   H        0.53389        -7.86793        -3.55909
   H       -2.72536       -10.72174        -0.46268
   H       -2.27810        -8.67385         1.10219
*
