# ORCA input file
# SCF done       -188.454903360938          0.000327133434
! CAM-B3LYP def2-SVP def2/J RIJCOSX Grid4 TightSCF
%maxcore 5000
%tddft
    Mode sTDDFT
    Ethresh 5.0
    maxcore 5000
end

%pal
  nprocs 6
  end
* xyz 0 1
   C        7.42903        -9.67068        -0.36207
   C        7.47607       -10.15542        -1.66343
   C        7.12057        -9.35275        -2.73807
   C        6.71669        -8.05450        -2.47794
   C        6.66803        -7.56529        -1.16431
   C        7.02138        -8.37046        -0.09663
   C        6.17961        -6.16281        -1.15510
   O        5.81034        -5.52963        -0.19911
   C        6.11927        -5.77582        -2.59229
   C        6.29612        -6.99962        -3.42286
   O        6.14375        -7.08438        -4.61927
   C        5.96562        -4.55692        -3.14314
   C        5.98663        -3.30382        -2.44758
   N        6.77698        -3.08144        -1.41905
   C        6.58591        -1.78529        -1.08042
   C        5.61693        -1.13788        -1.97269
   C        5.42889         0.26746        -1.59010
   O        4.73048         1.11286        -2.11209
   C        6.31448         0.40636        -0.41713
   C        7.01017        -0.86896        -0.14821
   N        7.82715        -0.74971         0.92773
   C        7.67719         0.48537         1.33663
   C        6.74339         1.26316         0.54362
   C        5.21246        -2.10848        -2.86043
   C        4.27169        -2.07755        -3.92592
   C        3.67376        -0.93102        -4.32754
   C        2.72113        -0.78068        -5.39036
   C        2.41785         0.50209        -5.81350
   C        1.51117         0.70648        -6.86339
   C        1.06928         1.88002        -7.47448
   C        1.55744         3.25173        -7.17124
   C        2.12138         3.94481        -8.42943
   N        3.19381         4.83582        -8.03414
   C        0.46319         4.09823        -6.49664
   N        1.02869         5.34889        -5.99996
   C        0.12047         1.48865        -8.48923
   C       -0.60813         2.21290        -9.36259
   C       -1.46375         1.55181       -10.39297
   C       -1.56596         0.06608       -10.26231
   C       -0.85402        -0.63982        -9.36323
   C        0.02103         0.02119        -8.47174
   C        0.86487        -0.44110        -7.47663
   C        1.17461        -1.73993        -7.01652
   C        2.08005        -1.89853        -6.01521
   C       -2.81966         2.20919       -10.44831
   C       -3.82361         1.84712        -9.64096
   C       -5.17227         2.32976        -9.69229
   N       -6.11946         1.55095        -9.19024
   C       -7.29594         2.12505        -9.50461
   C       -7.08586         3.35966       -10.26564
   C       -8.37233         3.99509       -10.60836
   O       -8.56243         5.01982       -11.22433
   C       -9.34795         3.06527       -10.01273
   C       -8.65193         1.93954        -9.35128
   N       -9.54229         1.09299        -8.78650
   C      -10.72097         1.61375        -9.04194
   C      -10.67184         2.84687        -9.79638
   C       -5.72696         3.53660       -10.35377
   C       -5.09071         4.69964       -10.88125
   C       -3.90287         5.20369       -10.47000
   C       -3.36671         6.40780       -10.99527
   C       -2.18717         6.96036       -10.60589
   C       -1.67644         8.25002       -11.12682
   O       -2.16051         8.91963       -12.01065
   C       -0.45800         8.54475       -10.33352
   C        0.37909         9.64342       -10.37926
   C        1.45261         9.68634        -9.49794
   C        1.67169         8.66270        -8.58571
   C        0.83348         7.55613        -8.53320
   C       -0.22437         7.50363        -9.42352
   C       -1.24129         6.44623        -9.60289
   O       -1.25313         5.35558        -9.05948
   H        7.71305       -10.31770         0.45462
   H        7.79300       -11.17264        -1.83963
   H        7.15340        -9.72034        -3.75221
   H        6.98209        -7.98529         0.91056
   H        5.84725        -4.51446        -4.22228
   H        8.22647         0.84680         2.18867
   H        6.48280         2.28889         0.71567
   H        4.06440        -3.01861        -4.41631
   H        3.94801        -0.01480        -3.81997
   H        2.89685         1.34365        -5.33514
   H        2.39487         3.16843        -6.47059
   H        1.30249         4.45058        -8.96216
   H        2.54648         3.18952        -9.09926
   H        2.83139         5.52857        -7.38715
   H        3.58439         5.31244        -8.83869
   H        0.00022         3.49386        -5.69934
   H       -0.31156         4.35092        -7.22266
   H        1.71187         5.15082        -5.27338
   H        0.29434         5.90929        -5.57789
   H       -0.60470         3.29207        -9.36329
   H       -0.97150         1.75865       -11.35830
   H       -2.24624        -0.42022       -10.94440
   H       -0.94386        -1.71486        -9.31102
   H        0.69129        -2.59490        -7.46577
   H        2.31233        -2.89047        -5.66055
   H       -2.95559         2.97739       -11.19444
   H       -3.68186         1.03784        -8.93608
   H      -11.61548         1.12441        -8.69761
   H      -11.52026         3.42760       -10.09996
   H       -5.68138         5.25385       -11.60214
   H       -3.33948         4.70762        -9.69299
   H       -3.93887         6.93744       -11.74985
   H        0.19496        10.44093       -11.08249
   H        2.12331        10.53261        -9.51755
   H        2.50693         8.72911        -7.90407
   H        0.98475         6.76749        -7.80979
*
