# ORCA input file
# SCF done       -226.056086152254          0.000453634580
! CAM-B3LYP def2-SVP def2/J RIJCOSX Grid4 TightSCF
%maxcore 5000
%tddft
    Mode sTDDFT
    Ethresh 5.0
    maxcore 5000
end

%pal
  nprocs 6
  end
* xyz 0 1
   C       -2.85312       -13.88679        -9.80784
   C       -3.24558       -15.18444       -10.09813
   C       -4.15741       -15.85474        -9.29415
   C       -4.71655       -15.24022        -8.18386
   C       -4.33942       -13.94117        -7.89092
   C       -3.39664       -13.26270        -8.69510
   C       -3.15024       -11.94719        -8.12495
   C       -2.39593       -10.95247        -8.68713
   C       -1.74579       -11.06327        -9.93487
   N       -1.19441       -11.07855       -10.94159
   C       -2.19160        -9.66953        -8.13773
   N       -1.98402        -8.60584        -7.75710
   C       -3.84605       -11.91232        -6.84121
   C       -4.75482       -13.05674        -6.81620
   C       -5.91727       -13.16298        -6.10876
   C       -6.41257       -12.18924        -5.21959
   N       -6.89447       -11.41479        -4.52186
   C       -6.82770       -14.23328        -6.25656
   N       -7.62283       -15.05298        -6.36190
   C       -3.57570       -11.02636        -5.84369
   C       -3.89523       -11.16231        -4.46916
   S       -4.16462        -9.73714        -3.50376
   C       -4.43076       -10.67453        -2.05873
   C       -4.27181       -12.02820        -2.32583
   C       -3.98108       -12.28488        -3.66947
   S       -3.61484       -13.97667        -4.08241
   O       -2.77762       -14.03736        -5.25302
   O       -4.84691       -14.71940        -4.12059
   C       -2.64620       -14.59936        -2.65738
   C       -2.88393       -13.81468        -1.37535
   C       -4.27559       -13.16397        -1.35672
   C       -4.78500       -10.05845        -0.82911
   C       -4.90281        -8.72055        -0.66900
   C       -5.30575        -8.01637         0.51563
   C       -5.68301        -8.65529         1.68156
   C       -6.12302        -7.91594         2.79340
   C       -6.58233        -8.30984         4.05108
   C       -6.59433        -9.67355         4.66122
   C       -7.67107       -10.54873         3.99314
   N       -8.97428        -9.93494         4.17319
   C       -5.20805       -10.34005         4.60205
   N       -4.37253        -9.87720         5.70395
   C       -7.02521        -7.11684         4.71786
   C       -7.73202        -6.94785         5.85433
   C       -7.97646        -5.58205         6.40276
   C       -7.64630        -4.45778         5.47700
   C       -7.05220        -4.65523         4.28463
   C       -6.72481        -5.96377         3.85775
   C       -6.19708        -6.46391         2.68345
   C       -5.77647        -5.82961         1.49247
   C       -5.34250        -6.58366         0.45215
   C       -6.99414        -5.62146         7.54586
   C       -7.32379        -5.66731         8.83961
   C       -6.35259        -5.96627         9.85304
   S       -6.40659        -5.27941        11.43738
   C       -4.99838        -6.18796        11.93633
   C       -4.52916        -6.99025        10.89833
   C       -5.30133        -6.85375         9.73802
   S       -5.12089        -7.95556         8.33826
   O       -4.41498        -7.28838         7.27310
   O       -6.42006        -8.49215         8.03080
   C       -4.05240        -9.24771         9.01703
   C       -2.91253        -8.52033         9.69939
   C       -3.35296        -7.90830        11.02864
   C       -4.47051        -6.06515        13.23954
   C       -4.98452        -5.24381        14.19704
   C       -4.43367        -5.14484        15.48768
   C       -4.79228        -4.23552        16.45072
   C       -4.53387        -4.38045        17.87545
   C       -3.62605        -5.21546        18.47363
   C       -2.73530        -6.07079        17.79311
   N       -1.98163        -6.78726        17.30478
   C       -3.43243        -5.30676        19.86791
   N       -3.22332        -5.43339        20.98961
   C       -5.43785        -3.46568        18.56179
   C       -6.12503        -2.69288        17.59786
   C       -7.06889        -1.75716        17.98593
   C       -7.32285        -1.59455        19.34005
   C       -6.64217        -2.34421        20.28811
   C       -5.69425        -3.28460        19.91145
   C       -5.62431        -3.05505        16.27980
   C       -5.72479        -2.28645        15.14871
   C       -6.53318        -1.13495        15.05205
   N       -7.19259        -0.20675        14.90601
   C       -4.94317        -2.47004        13.98794
   N       -4.28743        -2.52965        13.04754
   H       -2.13234       -13.38775       -10.43475
   H       -2.82545       -15.68257       -10.95886
   H       -4.43327       -16.87068        -9.53318
   H       -5.40983       -15.77149        -7.55262
   H       -3.01491       -10.13367        -6.08880
   H       -1.60844       -14.58212        -2.97676
   H       -2.98467       -15.62926        -2.56988
   H       -2.13186       -13.02844        -1.27188
   H       -2.78228       -14.48460        -0.51926
   H       -4.51077       -12.81872        -0.35101
   H       -5.02434       -13.89881        -1.66128
   H       -4.98256       -10.73149        -0.00763
   H       -4.68394        -8.09892        -1.52958
   H       -5.67883        -9.73303         1.72703
   H       -6.84613        -9.57457         5.72241
   H       -7.60673       -11.56786         4.41360
   H       -7.48616       -10.61308         2.91793
   H       -9.20783        -9.89677         5.15975
   H       -9.69074       -10.47546         3.70203
   H       -4.74904       -10.15300         3.62121
   H       -5.31978       -11.42482         4.71941
   H       -4.42738        -8.86631         5.78794
   H       -3.40322       -10.11602         5.51786
   H       -8.05001        -7.77880         6.46376
   H       -8.99323        -5.48134         6.79617
   H       -7.88776        -3.46679         5.82939
   H       -6.83073        -3.82064         3.63508
   H       -5.81627        -4.75282         1.42004
   H       -5.02676        -6.11315        -0.46751
   H       -5.96112        -5.69755         7.24281
   H       -8.33922        -5.49578         9.17150
   H       -3.74236        -9.84633         8.16408
   H       -4.65409        -9.84252         9.69803
   H       -2.56801        -7.73342         9.02427
   H       -2.07810        -9.20042         9.88201
   H       -2.51595        -7.35566        11.46278
   H       -3.60872        -8.71061        11.72944
   H       -3.58175        -6.63938        13.46391
   H       -5.87107        -4.67249        13.95745
   H       -3.71597        -5.90765        15.75574
   H       -7.60766        -1.17203        17.25842
   H       -8.06114        -0.87397        19.65707
   H       -6.85315        -2.19866        21.33651
   H       -5.17807        -3.86005        20.66209
*
