# ORCA input file
# SCF done       -201.301421626139          0.000907994595
! CAM-B3LYP def2-SVP def2/J RIJCOSX Grid4 TightSCF
%maxcore 5000
%tddft
    Mode sTDDFT
    Ethresh 5.0
    maxcore 5000
end

%pal
  nprocs 6
  end
* xyz 0 1
   C        0.69686         2.24069         0.89466
   C        0.76888         2.72412        -0.38492
   C       -0.30450         3.21853        -1.14723
   N       -1.14146         3.62012        -1.82223
   C        2.02078         2.74191        -1.03565
   N        3.04434         2.75383        -1.55308
   N       -0.39323         2.16756         1.70331
   C       -1.71454         2.60282         1.31827
   C       -0.17886         1.65780         2.97595
   O       -1.05240         1.53743         3.80279
   C        1.23216         1.30849         3.15485
   S        2.13408         1.62638         1.68400
   C        1.71021         0.78149         4.30513
   C        3.04385         0.33484         4.55894
   C        3.30906        -0.84490         5.20215
   C        4.69823        -1.17536         5.00219
   C        5.33634        -2.31691         5.50012
   N        5.88256        -3.22733         5.93891
   C        5.29151        -0.18102         4.26662
   C        4.33000         0.87087         4.07337
   C        4.58716         2.18831         3.76544
   C        5.82546         2.77492         3.18406
   C        5.47013         3.96267         2.60963
   C        4.10394         4.25783         2.95930
   C        3.59444         3.21652         3.69488
   C        3.40339         5.41544         2.59827
   N        2.80369         6.34578         2.29297
   C        7.16714         2.28903         3.23247
   C        7.70029         1.61946         4.27973
   C        9.01675         1.04547         4.34955
   C        9.25696         0.09143         5.32549
   C       10.47141        -0.60596         5.35129
   C       10.91142        -1.66060         6.15510
   C       10.24283        -2.28888         7.31788
   C        9.79184        -1.24410         8.36311
   N        9.98693        -1.79998         9.68819
   C        9.05050        -3.17333         6.87832
   N        8.39540        -3.73102         8.03853
   C       12.21812        -2.02648         5.67027
   C       13.01779        -3.06185         5.99369
   C       14.38188        -3.19552         5.41966
   C       14.71869        -2.17867         4.37782
   C       13.86294        -1.21283         3.98763
   C       12.58988        -1.10315         4.59409
   C       11.50368        -0.26729         4.38419
   C       11.26095         0.75448         3.44155
   C       10.05023         1.37347         3.41756
   C       15.31058        -3.08252         6.61260
   C       16.26781        -3.95471         6.92000
   C       17.05335        -3.84703         8.13309
   C       18.40385        -3.91197         8.25347
   C       18.76073        -3.58344         9.62344
   C       20.06440        -3.46348        10.11198
   N       21.13126        -3.29827        10.50616
   C       17.61967        -3.30071        10.32440
   C       16.50111        -3.45551         9.43970
   C       15.16051        -3.35946         9.75857
   C       14.53595        -2.58830        10.85255
   C       13.21877        -2.97181        10.92727
   C       12.97041        -3.95291         9.90990
   C       14.12398        -4.14717         9.17813
   C       11.76072        -4.62064         9.69338
   N       10.78364        -5.18772         9.48136
   C       15.15166        -1.54862        11.59842
   C       16.28152        -0.89630        11.21085
   C       17.01923        -0.03647        12.05356
   C       18.28306         0.38848        11.76986
   C       19.07150         0.06923        10.58157
   O       18.69648        -0.51112         9.58357
   N       20.37227         0.52726        10.72794
   C       20.65160         1.20093        11.87388
   C       21.84536         1.75963        12.25003
   C       23.03688         1.75258        11.50242
   N       24.03825         1.79585        10.94274
   C       21.94074         2.42836        13.48889
   N       22.02419         2.97494        14.49367
   S       19.24228         1.31616        12.90474
   C       21.34908         0.23924         9.70509
   H       -2.07374         2.03593         0.45904
   H       -1.71503         3.66536         1.07348
   H       -2.36516         2.42327         2.17466
   H        0.96215         0.55638         5.05790
   H        2.59607        -1.48267         5.69079
   H        6.30382        -0.18240         3.91723
   H        6.11209         4.62901         2.06478
   H        2.61689         3.17518         4.13345
   H        7.78922         2.56939         2.39258
   H        7.07771         1.44755         5.14955
   H        8.48166        -0.15468         6.03560
   H       10.95997        -2.93714         7.82874
   H        8.74773        -0.96116         8.16439
   H       10.41468        -0.34718         8.27922
   H        9.40085        -2.62574         9.77695
   H        9.70072        -1.13176        10.39607
   H        9.43564        -3.93622         6.18226
   H        8.32336        -2.56523         6.33519
   H        8.94484        -4.48567         8.44023
   H        7.47571        -4.07598         7.79262
   H       12.72243        -3.79809         6.72789
   H       14.51335        -4.19855         4.99140
   H       15.70320        -2.26093         3.94331
   H       14.14037        -0.51092         3.21484
   H       12.03296         1.02468         2.73649
   H        9.86121         2.14658         2.68954
   H       15.12334        -2.22842         7.24790
   H       16.51556        -4.76741         6.24790
   H       19.11708        -4.12466         7.47925
   H       17.55648        -3.09864        11.37618
   H       12.46684        -2.58160        11.58614
   H       14.26774        -4.88542         8.41242
   H       14.66854        -1.27276        12.52868
   H       16.69605        -1.08338        10.23257
   H       16.59706         0.23078        13.01474
   H       20.82279        -0.29075         8.91110
   H       22.14023        -0.39894        10.09982
   H       21.78214         1.15838         9.31107
*
