# ORCA input file
# SCF done       -206.936323925825          0.000789291735
! CAM-B3LYP def2-SVP def2/J RIJCOSX Grid4 TightSCF
%maxcore 5000
%tddft
    Mode sTDDFT
    Ethresh 5.0
    maxcore 5000
end

%pal
  nprocs 6
  end
* xyz 0 1
   C        5.57202         2.18019         6.25597
   C        6.14248         2.50576         5.05898
   C        7.45988         2.99390         4.93078
   N        8.52842         3.38721         4.79003
   C        5.51483         2.27570         3.81546
   N        5.07938         2.02452         2.78390
   C        6.24294         2.13994         7.54894
   C        5.49153         1.30438         8.43002
   C        5.90460         1.05800         9.70927
   C        7.09848         1.65186        10.17444
   C        7.84359         2.50106         9.30418
   C        7.39678         2.73466         7.98358
   C        9.02839         3.09437         9.78538
   C        9.45991         2.86005        11.06257
   C        8.72690         2.02325        11.91794
   C        7.57201         1.43181        11.48347
   C        4.28188         0.82957         7.74270
   O        3.43678         0.06022         8.13591
   C        4.26503         1.57457         6.44293
   C        3.10317         1.71810         5.76360
   C        2.81439         2.69883         4.76941
   N        3.52956         3.80487         4.65942
   C        2.93075         4.53603         3.69174
   C        1.74561         3.85501         3.16750
   C        1.12627         4.65072         2.10835
   O        0.11090         4.41978         1.47906
   C        2.02969         5.81627         2.00219
   C        3.10986         5.71114         3.00534
   N        3.95273         6.77162         2.91610
   C        3.48307         7.49865         1.93521
   C        2.28551         6.95507         1.31354
   C        1.66369         2.65571         3.83938
   C        0.76126         1.57210         3.69410
   C       -0.31724         1.68286         2.87965
   N       -1.24506         0.72950         2.61026
   C       -1.05173        -0.62897         2.86748
   C        0.12988        -1.29646         2.69993
   S       -0.01778        -2.97665         2.99851
   C       -1.68530        -2.81280         3.35058
   C       -2.11022        -1.51839         3.25207
   N       -3.40977        -1.07965         3.51555
   C       -3.54883         0.22575         4.12603
   C       -3.60758         1.30739         3.05134
   O       -4.43315         2.17069         3.00945
   C       -2.49692         1.14068         2.01294
   C       -4.47658        -1.80215         3.13231
   C       -5.78462        -1.45427         3.29556
   C       -6.81190        -2.30569         2.84488
   N       -6.57357        -3.33818         2.03157
   C       -7.76886        -3.84119         1.70465
   C       -8.86169        -3.09379         2.34894
   C      -10.17623        -3.65875         1.97944
   O      -11.27286        -3.29728         2.34382
   C       -9.80175        -4.75015         1.06948
   C       -8.33465        -4.83353         0.93109
   N       -7.98826        -5.84076         0.10107
   C       -9.12880        -6.37997        -0.27789
   C      -10.29442        -5.75139         0.28784
   C       -8.26538        -2.12679         3.11266
   C       -8.88840        -1.20893         4.00584
   C       -8.26419        -0.66342         5.08011
   C       -8.86837         0.27226         5.95167
   C       -8.17206         0.96069         6.90650
   C       -8.71291         1.86611         7.90676
   C      -10.01757         2.25899         8.04580
   C      -10.47425         3.13967         9.04966
   N      -10.91066         3.84841         9.84021
   C      -11.09044         1.86602         7.21750
   N      -12.01456         1.60011         6.59022
   C       -7.60893         2.29504         8.75987
   C       -6.40279         1.72299         8.26434
   C       -6.70129         0.90322         7.08283
   O       -5.88210         0.33044         6.38304
   C       -5.19563         1.95004         8.86106
   C       -5.13818         2.76710        10.01122
   C       -6.34077         3.33875        10.51782
   C       -7.57494         3.09252         9.87302
   C       -6.27400         4.14841        11.66980
   C       -5.07826         4.38237        12.29281
   C       -3.89472         3.81949        11.79243
   C       -3.92387         3.02939        10.67552
   H        5.32595         0.41896        10.35978
   H        7.97095         3.39014         7.34765
   H        9.59041         3.73553         9.12263
   H       10.36917         3.31827        11.42142
   H        9.08206         1.85015        12.92266
   H        7.00379         0.78682        12.13758
   H        2.28324         1.08335         6.08158
   H        3.97196         8.41516         1.65404
   H        1.75476         7.39746         0.49377
   H        0.95976         0.66479         4.24507
   H       -0.50195         2.63270         2.39385
   H        1.06902        -0.88994         2.38422
   H       -2.26076        -3.67109         3.63189
   H       -2.67418         0.41931         4.75567
   H       -4.43456         0.26456         4.76458
   H       -2.35946         2.08762         1.48507
   H       -2.83340         0.39096         1.28638
   H       -4.26110        -2.74620         2.65173
   H       -6.06550        -0.51903         3.74773
   H       -9.13131        -7.21787        -0.95333
   H      -11.31128        -6.03907         0.10783
   H       -9.92950        -0.98311         3.80816
   H       -7.25330        -0.95663         5.31327
   H       -9.93158         0.43878         5.83997
   H       -4.29455         1.50540         8.46464
   H       -8.46516         3.54184        10.28282
   H       -7.18752         4.58017        12.05124
   H       -5.03780         5.00289        13.17535
   H       -2.95992         4.01476        12.29632
   H       -3.01551         2.59312        10.28594
*
