# ORCA input file
# SCF done       -233.930533199657          0.000721719803
! CAM-B3LYP def2-SVP def2/J RIJCOSX Grid4 TightSCF
%maxcore 5000
%tddft
    Mode sTDDFT
    Ethresh 5.0
    maxcore 5000
end

%pal
  nprocs 6
  end
* xyz 0 1
   C        5.81735         3.83475        -3.36777
   C        5.34922         4.53913        -4.45383
   C        4.27956         5.45280        -4.39509
   N        3.44987         6.24753        -4.39189
   C        5.83836         4.37734        -5.76396
   N        6.17369         4.26689        -6.85696
   C        5.14210         3.73327        -2.07933
   C        5.67003         2.60772        -1.38062
   C        5.18438         2.22541        -0.16403
   C        4.12539         2.95830         0.41807
   C        3.59701         4.08779        -0.27133
   C        4.13034         4.47015        -1.52389
   C        2.51836         4.78999         0.30356
   C        1.98346         4.39670         1.50134
   C        2.51525         3.29309         2.18441
   C        3.56372         2.58958         1.65580
   C        6.73773         1.99339        -2.18663
   O        7.38384         0.99970        -1.93971
   C        6.90213         2.88475        -3.37247
   C        7.98243         2.70365        -4.18233
   C        8.58154         3.57389        -5.12714
   S        9.47378         2.86351        -6.44989
   C        9.89563         4.40740        -7.04646
   C        9.42710         5.42379        -6.26458
   C        8.67735         4.95570        -5.16241
   C        8.13945         5.89499        -4.13990
   C        8.94765         7.19026        -4.13911
   C        8.92304         7.78927        -5.56423
   O        9.50896         9.07486        -5.48151
   C        9.24356         9.91283        -6.57813
   C        9.69267         6.87369        -6.52655
   N        8.47968         8.13629        -3.14877
   C        7.15448         8.46432        -2.99580
   C        6.72785         9.67242        -2.59230
   C        5.36621        10.04971        -2.29709
   C        5.06572        11.38111        -2.11207
   C        3.75161        11.78957        -1.81896
   C        3.20310        13.04720        -1.59647
   C        3.95252        14.33955        -1.59723
   C        3.42692        15.30805        -2.66965
   N        3.28882        14.61273        -3.93516
   C        3.94424        15.00308        -0.21028
   N        4.62447        14.15269         0.75476
   C        1.80529        12.85586        -1.31850
   C        0.80091        13.71811        -1.04582
   C       -0.53174        13.22559        -0.62800
   C       -0.77106        11.77591        -0.82666
   C        0.22600        10.92757        -1.15887
   C        1.52832        11.41479        -1.37891
   C        2.71689        10.78015        -1.70006
   C        3.04374         9.42224        -1.89157
   C        4.32363         9.07543        -2.18340
   C       -1.68983        14.12518        -0.92212
   C       -2.82626        13.75331        -1.51354
   C       -4.03250        14.54113        -1.45676
   S       -5.21466        14.54267        -2.73846
   C       -6.30543        15.49137        -1.79727
   C       -5.79369        15.78904        -0.57509
   C       -4.49255        15.25627        -0.38347
   C       -3.91119        15.35945         0.98399
   C       -5.02227        14.94242         1.96358
   C       -6.19850        15.94108         1.92222
   O       -5.92093        16.91520         2.90622
   C       -7.01513        17.72625         3.25553
   C       -6.41165        16.58643         0.52537
   N       -5.52197        13.61525         1.66105
   C       -4.85008        12.46041         1.77177
   C       -3.56386        12.26862         2.18509
   C       -3.01511        10.97535         2.21163
   C       -1.67838        10.67734         2.32650
   C       -1.09076         9.35600         2.34635
   C       -1.74425         8.17606         2.60954
   C       -1.11234         6.92188         2.66803
   N       -0.66250         5.86650         2.73971
   C       -3.11710         8.06408         2.90388
   N       -4.22572         7.89983         3.15961
   C        0.33758         9.50216         2.09443
   C        0.64017        10.89362         2.02948
   C       -0.59483        11.66045         2.22646
   O       -0.69268        12.88616         2.22199
   C        1.89947        11.34374         1.75248
   C        2.93217        10.40670         1.52817
   C        2.64121         9.01528         1.60115
   C        1.32621         8.57847         1.88595
   C        3.68319         8.09397         1.37291
   C        4.94630         8.52802         1.07654
   C        5.22629         9.89965         0.99652
   C        4.24161        10.82330         1.22163
   H        5.59270         1.36374         0.34303
   H        3.71616         5.33667        -2.01557
   H        2.11050         5.63510        -0.23303
   H        1.14123         4.92071         1.92761
   H        2.08220         3.00098         3.12902
   H        3.97182         1.73381         2.17393
   H        8.49166         1.75409        -4.04044
   H       10.46779         4.48787        -7.94968
   H        8.14652         5.43902        -3.14670
   H        7.10033         6.13286        -4.39077
   H        9.99197         6.96920        -3.88589
   H        7.87359         7.88607        -5.88863
   H        9.66057        10.88576        -6.32449
   H        8.16465        10.01145        -6.74680
   H        9.71610         9.54813        -7.49616
   H       10.76104         7.07593        -6.39567
   H        9.43582         7.10845        -7.56205
   H        9.09026         8.94341        -3.10453
   H        6.45791         7.65545        -3.14962
   H        7.46484        10.46090        -2.48872
   H        5.85370        12.11748        -2.19659
   H        4.99681        14.11427        -1.84474
   H        4.10765        16.17936        -2.71797
   H        2.43719        15.67897        -2.39308
   H        4.16739        14.18366        -4.20426
   H        3.00983        15.25372        -4.66887
   H        2.91626        15.13059         0.13520
   H        4.40078        16.00581        -0.29621
   H        5.59615        14.03054         0.48610
   H        4.61019        14.58271         1.67379
   H        0.93805        14.78977        -1.04053
   H       -0.45262        13.34054         0.48809
   H       -1.76763        11.41497        -0.62285
   H        0.03790         9.86759        -1.25675
   H        2.27423         8.66908        -1.80469
   H        4.57019         8.03440        -2.32122
   H       -1.59298        15.13324        -0.54104
   H       -2.90453        12.79571        -2.00909
   H       -7.25063        15.77416        -2.21619
   H       -3.61638        16.38431         1.21728
   H       -3.04543        14.71063         1.09184
   H       -4.62643        14.94655         2.98558
   H       -7.11761        15.40093         2.21177
   H       -6.67868        18.34887         4.08145
   H       -7.86791        17.11866         3.58128
   H       -7.33345        18.36823         2.42748
   H       -5.91954        17.56455         0.55125
   H       -7.47373        16.74789         0.33493
   H       -6.41476        13.58111         1.19501
   H       -5.42702        11.58914         1.48251
   H       -2.92938        13.09385         2.45853
   H       -3.70615        10.15388         2.06578
   H        2.11721        12.39941         1.69255
   H        1.13208         7.51773         1.91756
   H        3.46669         7.03700         1.43704
   H        5.73634         7.81371         0.89597
   H        6.22801        10.21937         0.75173
   H        4.43727        11.88394         1.14886
*
