# ORCA input file
# SCF done       -194.342151157229          0.000826839903
! CAM-B3LYP def2-SVP def2/J RIJCOSX Grid4 TightSCF
%maxcore 5000
%tddft
    Mode sTDDFT
    Ethresh 5.0
    maxcore 5000
end

%pal
  nprocs 6
  end
* xyz 0 1
   C        4.34707        12.29589         3.73456
   C        3.55233        13.37102         3.44651
   C        3.82456        14.69046         3.86685
   N        3.99828        15.78112         4.17841
   C        2.34254        13.29003         2.72286
   N        1.34132        13.28028         2.16267
   C        5.55869        12.30438         4.54379
   C        6.01761        10.96274         4.70332
   C        7.14148        10.66454         5.42086
   C        7.87374        11.71311         6.01971
   C        7.42504        13.05714         5.86132
   C        6.25678        13.33540         5.11560
   C        8.16844        14.09559         6.45819
   C        9.30067        13.82194         7.17665
   C        9.74109        12.49888         7.33223
   C        9.04251        11.46656         6.76694
   C        5.12200        10.05014         3.98321
   O        5.21076         8.84314         3.88816
   C        4.10425        10.92073         3.33230
   C        3.26089        10.44392         2.38465
   C        3.15818         9.05128         2.09059
   C        3.07878         7.93259         3.05657
   N        3.08076         6.75880         2.50000
   C        3.18767         6.97766         1.16034
   C        3.19607         8.42810         0.87533
   C        3.30879         8.66114        -0.54379
   S        3.13727        10.10092        -1.30970
   C        3.46382         7.34348        -1.10042
   C        3.31898         6.32499        -0.03488
   N        3.40106         5.06989        -0.55726
   C        3.59265         5.22961        -1.83180
   C        3.68437         6.63089        -2.25674
   C        4.01560         7.05048        -3.57216
   S        3.59588         6.07037        -4.95872
   C        4.70324         8.16718        -3.99604
   C        5.43567         9.27996        -3.37464
   O        5.63927         9.53899        -2.21364
   N        5.92673        10.01992        -4.44396
   C        6.69094        11.22977        -4.26826
   C        5.64228         9.47398        -5.68582
   O        5.99222         9.95264        -6.73874
   C        4.87128         8.25208        -5.39696
   C        4.32802         7.18838        -6.09346
   C        4.29821         6.86426        -7.47267
   C        4.82208         7.64446        -8.45212
   C        4.83848         7.29075        -9.82467
   C        5.36141         8.18797       -10.86515
   N        5.33243         7.69962       -12.06807
   C        4.80243         6.45014       -11.94100
   C        4.46095         6.16257       -10.52900
   C        3.92608         4.82905       -10.42829
   S        3.38952         3.98902        -9.11816
   C        3.98140         4.32084       -11.77653
   C        4.50931         5.34401       -12.69252
   N        4.58052         4.85187       -13.96160
   C        4.12968         3.63515       -13.90074
   C        3.72307         3.21484       -12.54552
   C        3.22581         1.94842       -12.12525
   C        2.35014         1.19103       -12.83155
   C        1.84600        -0.13336       -12.50785
   C        2.34605        -0.97581       -11.55214
   C        1.83385        -2.26429       -11.28880
   N        1.45683        -3.31731       -11.03249
   C        3.45521        -0.68761       -10.72752
   N        4.36378        -0.53234       -10.04371
   C        0.75877        -0.42667       -13.43256
   C        0.61571         0.66613       -14.33739
   C        1.59844         1.70822       -14.01036
   O        1.73691         2.78761       -14.54424
   C       -0.32609         0.66625       -15.32674
   C       -1.18330        -0.44796       -15.46109
   C       -1.05010        -1.54317       -14.55832
   C       -0.06778        -1.51423       -13.54244
   C       -1.91307        -2.64888       -14.70085
   C       -2.86130        -2.67375       -15.68719
   C       -2.99126        -1.59528       -16.57532
   C       -2.17007        -0.50601       -16.46499
   H        7.46826         9.64075         5.52716
   H        5.94540        14.36255         5.00869
   H        7.82544        15.11243         6.33630
   H        9.86375        14.62428         7.62906
   H       10.63685        12.30179         7.90170
   H        9.37679        10.44608         6.88286
   H        2.69859        11.11663         1.74848
   H        2.92790         8.03836         4.11525
   H        3.69724         4.38478        -2.49051
   H        6.08446        11.98209        -3.76246
   H        6.98271        11.58621        -5.25431
   H        7.57626        11.02660        -3.66464
   H        3.83194         5.92098        -7.72608
   H        5.27218         8.59538        -8.20008
   H        5.73861         9.17857       -10.67784
   H        4.13199         3.00741       -14.77214
   H        3.54995         1.62662       -11.14193
   H       -0.41385         1.50682       -15.99905
   H        0.00435        -2.35553       -12.87148
   H       -1.80902        -3.47709       -14.01547
   H       -3.51709        -3.52532       -15.78858
   H       -3.74531        -1.63192       -17.34711
   H       -2.26519         0.32737       -17.14547
*
