# ORCA input file
# SCF done       -190.634759806194          0.000673760354
! CAM-B3LYP def2-SVP def2/J RIJCOSX Grid4 TightSCF
%maxcore 5000
%tddft
    Mode sTDDFT
    Ethresh 5.0
    maxcore 5000
end

%pal
  nprocs 6
  end
* xyz 0 1
   C        1.40591         2.42977         4.28217
   C        2.45047         2.97547         3.58072
   C        3.56139         2.23542         3.12732
   N        4.48510         1.67593         2.73886
   C        2.57321         4.34964         3.30353
   N        2.72726         5.46759         3.09054
   C        1.36432         1.06380         4.79593
   C        0.41272         1.00739         5.85622
   C        0.19113        -0.14169         6.55890
   C        0.91409        -1.30787         6.21915
   C        1.84887        -1.26302         5.14461
   C        2.06314        -0.05668         4.43780
   C        2.55716        -2.43495         4.81109
   C        2.35818        -3.59552         5.50842
   C        1.43998        -3.63828         6.56798
   C        0.73299        -2.51907         6.91537
   C       -0.22669         2.32643         6.00619
   O       -1.04108         2.67573         6.82993
   C        0.29938         3.14601         4.87718
   C       -0.31988         4.31828         4.56339
   C       -0.26209         5.06561         3.36635
   S       -0.44544         6.78835         3.45662
   C       -0.16775         6.96626         1.76007
   C        0.00590         5.71866         1.13834
   C       -0.04553         4.64815         2.04839
   C        0.02895         3.20123         1.73691
   O        0.91226         2.64684         1.13495
   O       -1.02497         2.54070         2.23317
   O        0.13830         5.75038        -0.19710
   C        0.34997         4.57265        -0.94402
   C       -0.09084         8.21426         1.12173
   S        0.21467         8.35628        -0.59223
   C        0.23643        10.10772        -0.55873
   C       -0.00023        10.55223         0.74826
   C       -0.18289         9.48812         1.67310
   N       -0.40017        10.01877         2.90252
   C       -0.35970        11.39364         2.78639
   C       -0.55655        12.23467         3.89039
   N       -0.72203        12.92952         4.78842
   C       -0.11709        11.75616         1.47641
   C        0.49052        10.89323        -1.69146
   C        0.69492        10.39811        -2.94557
   C        0.99819        11.19312        -4.06938
   S        1.25274        12.89874        -3.91029
   C        1.56567        13.07907        -5.60924
   C        1.55959        11.82954        -6.26024
   C        1.23070        10.76931        -5.38579
   C        1.21985         9.33102        -5.72510
   O        2.09549         8.74532        -6.31073
   O        0.12754         8.69841        -5.27101
   O        1.89987        11.80915        -7.54518
   C        1.66152        10.68216        -8.36071
   C        1.88054        14.35116        -6.12277
   C        1.65506        14.79485        -7.39942
   C        2.19735        15.99472        -7.99468
   C        3.22643        16.75552        -7.49779
   C        3.74695        17.89673        -8.14003
   N        4.21147        18.83596        -8.61047
   C        3.91999        16.48793        -6.30008
   N        4.54081        16.32465        -5.34733
   C        1.52589        16.20230        -9.27314
   C        0.59868        15.14042        -9.47374
   C        0.63629        14.22989        -8.31377
   O       -0.10111        13.28754        -8.10927
   C       -0.18004        15.06637       -10.59136
   C       -0.05881        16.06525       -11.58448
   C        0.86494        17.13156       -11.39006
   C        1.65351        17.18561       -10.21714
   C        0.97462        18.12468       -12.38417
   C        0.20997        18.06874       -13.51768
   C       -0.69956        17.01828       -13.70818
   C       -0.83038        16.03758       -12.76238
   H       -0.52536        -0.16137         7.36653
   H        2.76990        -0.04983         3.62274
   H        3.26614        -2.39560         3.99721
   H        2.90870        -4.48697         5.24782
   H        1.29583        -4.56203         7.10801
   H        0.02495        -2.54587         7.73070
   H       -0.97378         4.71219         5.33603
   H       -0.95030         1.59084         2.04586
   H        0.45956         4.90551        -1.97458
   H       -0.50967         3.90024        -0.86721
   H        1.25092         4.04525        -0.62494
   H       -0.54426         9.51270         3.76046
   H       -0.03708        12.75761         1.10503
   H        0.53006        11.96354        -1.53243
   H        0.61937         9.33109        -3.09615
   H        0.17779         7.75430        -5.49110
   H        2.37357         9.87947        -8.15560
   H        1.78584        11.03814        -9.38247
   H        0.64168        10.31357        -8.22661
   H        2.30659        15.04309        -5.40544
   H       -0.87935        14.25341       -10.72046
   H        2.33727        18.01054       -10.09438
   H        1.67728        18.93104       -12.23293
   H        0.30195        18.83407       -14.27380
   H       -1.29665        16.99006       -14.60751
   H       -1.53000        15.22652       -12.90376
*
