# ORCA input file
# SCF done       -233.705097443165          0.000385487030
! CAM-B3LYP def2-SVP def2/J RIJCOSX Grid4 TightSCF
%maxcore 5000
%tddft
    Mode sTDDFT
    Ethresh 5.0
    maxcore 5000
end

%pal
  nprocs 6
  end
* xyz 0 1
   C       -0.50948         1.55077        -4.75519
   C       -0.02437         1.61041        -6.03145
   F        0.41339         2.77231        -6.53209
   C        0.02250         0.45373        -6.83606
   F        0.50290         0.54152        -8.08329
   C       -0.41649        -0.74683        -6.35265
   C       -0.92203        -0.84073        -5.04134
   C       -0.96890         0.32760        -4.22624
   C       -1.46897         0.25648        -2.90619
   C       -1.90398        -0.94664        -2.41452
   C       -1.85900        -2.10673        -3.23715
   C       -1.38682        -2.06720        -4.51774
   C       -2.40372        -3.26125        -2.49803
   O       -2.61289        -4.36713        -2.94634
   C       -2.76326        -2.73609        -1.15119
   C       -2.44349        -1.32031        -1.11134
   C       -2.53801        -0.50151        -0.01852
   C       -2.18103         0.86397        -0.02305
   N       -1.91013         1.97792         0.02850
   C       -2.96510        -0.91128         1.26372
   N       -3.27164        -1.17311         2.33813
   C       -3.44290        -3.44243        -0.20873
   C       -3.58653        -4.86365        -0.20903
   C       -4.77645        -5.46656         0.25162
   C       -4.95388        -6.89031         0.20986
   N       -6.16771        -7.40826         0.41784
   C       -7.11292        -6.64413         0.90420
   C       -6.87208        -5.24880         1.13807
   N       -5.76286        -4.68893         0.73127
   C       -7.88024        -4.45336         1.73958
   N       -8.72518        -3.85018         2.22233
   C       -8.36728        -7.23633         1.18517
   N       -9.35885        -7.73658         1.46663
   C       -3.89160        -7.78084        -0.09980
   C       -2.68399        -7.18097        -0.50105
   C       -2.54100        -5.74085        -0.55825
   N       -1.29076        -5.38400        -0.85584
   S       -0.40643        -6.69558        -1.07746
   N       -1.53242        -7.79685        -0.77935
   C       -4.13508        -9.16399         0.15795
   N       -3.70976       -10.25633        -0.54415
   C       -2.91140       -10.30155        -1.74809
   C       -1.51370       -10.83862        -1.45595
   C       -4.26574       -11.44547        -0.03852
   O       -4.08925       -12.53012        -0.56442
   C       -5.04231       -11.03148         1.10915
   C       -4.95314        -9.62561         1.19628
   C       -5.64951        -9.20629         2.40238
   O       -5.78690        -8.12786         2.93958
   N       -6.17102       -10.40212         2.93018
   C       -7.03308       -10.39519         4.08875
   C       -8.49937       -10.55255         3.69561
   C       -5.81091       -11.49295         2.18969
   C       -6.12481       -12.83129         2.53493
   C       -5.71894       -13.84350         1.72821
   C       -5.82135       -15.23576         2.00699
   C       -5.23959       -16.17009         1.13586
   N       -5.04727       -17.47372         1.42721
   C       -5.49739       -17.99628         2.52675
   C       -6.21259       -17.20341         3.45478
   C       -6.35407       -15.78891         3.20045
   N       -7.00924       -15.27522         4.22421
   O       -7.26170       -16.29301         5.04761
   N       -6.79508       -17.45238         4.61274
   C       -4.75149       -15.69928        -0.15694
   C       -3.46969       -15.77994        -0.54340
   C       -3.01314       -15.10961        -1.71857
   C       -1.76433       -14.63962        -1.94907
   C       -1.35319       -14.21879        -3.31813
   O       -2.07781       -13.99719        -4.25826
   C        0.12386       -14.18532        -3.28103
   C        1.00144       -13.99599        -4.30943
   C        2.38868       -14.05470        -4.04904
   C        2.84032       -14.31279        -2.72191
   C        4.22566       -14.38338        -2.47153
   C        5.11976       -14.20403        -3.48938
   C        4.67175       -13.94711        -4.80127
   C        3.33509       -13.87317        -5.07641
   F        5.57043       -13.77594        -5.77897
   F        6.43497       -14.27083        -3.24953
   C        1.90832       -14.49461        -1.67477
   C        0.56819       -14.42612        -1.94886
   C       -0.60387       -14.54710        -1.08428
   C       -0.60716       -14.36869         0.27267
   C       -1.75816       -14.19465         1.07204
   N       -2.62633       -13.98470         1.79298
   C        0.57170       -14.20911         1.03400
   N        1.50116       -14.08526         1.69540
   H       -0.53740         2.44516        -4.15258
   H       -0.37492        -1.62240        -6.98145
   H       -1.49903         1.15915        -2.31774
   H       -1.36602        -2.96146        -5.12197
   H       -3.97059        -2.92571         0.58283
   H       -2.86094        -9.30378        -2.18087
   H       -3.41637       -10.97714        -2.44627
   H       -0.98278       -10.16280        -0.79180
   H       -0.95670       -10.93811        -2.38358
   H       -1.59351       -11.81577        -0.98671
   H       -6.88144        -9.42711         4.57355
   H       -6.72650       -11.18793         4.77622
   H       -8.80323        -9.74244         3.03612
   H       -9.11992       -10.52381         4.58645
   H       -8.66422       -11.49869         3.18519
   H       -6.65092       -13.03752         3.45540
   H       -5.19159       -13.59528         0.81974
   H       -5.29792       -19.04141         2.70947
   H       -5.44987       -15.13655        -0.76226
   H       -2.74976       -16.28939         0.08211
   H       -3.73017       -14.95839        -2.51736
   H        0.64211       -13.81042        -5.31022
   H        4.58588       -14.57666        -1.47318
   H        3.00836       -13.67762        -6.08574
   H        2.27814       -14.69886        -0.68266
*
