# ORCA input file
# SCF done       -180.130265068119          0.000992398080
! CAM-B3LYP def2-SVP def2/J RIJCOSX Grid4 TightSCF
%maxcore 5000
%tddft
    Mode sTDDFT
    Ethresh 5.0
    maxcore 5000
end

%pal
  nprocs 6
  end
* xyz 0 1
   C        0.82386        -0.75657        -1.06022
   N        1.01784         0.29380        -1.90109
   C        1.81569         0.27764        -3.10147
   C        3.30816         0.30681        -2.78249
   C        0.39344         1.46349        -1.41659
   O        0.42730         2.53083        -2.00209
   C       -0.22402         1.04582        -0.18318
   C        0.06729        -0.34403         0.00048
   C       -0.55482        -0.77126         1.23685
   O       -0.59852        -1.83816         1.80591
   N       -1.18363         0.39450         1.72185
   C       -1.88959         0.38478         2.97942
   C       -1.04579         0.96333         4.11334
   C       -0.99126         1.47662         0.89081
   C       -1.52130         2.76770         1.15059
   C       -1.35363         3.80726         0.29397
   C       -1.85234         5.11743         0.51281
   S       -1.68457         6.32453        -0.73341
   C       -2.46350         7.53699         0.23405
   C       -2.82587         7.00120         1.47829
   C       -2.48352         5.64893         1.61989
   C       -3.46907         7.69695         2.51404
   N       -3.99145         8.21752         3.39457
   C       -2.64706         8.83847        -0.28768
   C       -3.18986         9.87980         0.39775
   C       -3.39607        11.17584        -0.11870
   S       -3.03623        11.60194        -1.76453
   C       -3.59158        13.23740        -1.51237
   C       -4.00283        13.43040        -0.18984
   C       -3.90632        12.27035         0.58227
   C       -4.28723        12.21804         2.02797
   C       -5.07551        13.46099         2.43802
   C       -4.41231        14.74202         1.90428
   N       -3.03995        14.94718         2.33172
   C       -4.45705        14.73615         0.37241
   C       -3.60109        14.14131        -2.59756
   C       -4.21275        15.37587        -2.69586
   C       -3.98385        15.91402        -3.98657
   C       -3.15093        14.92622        -4.70392
   C       -2.94434        13.87411        -3.87371
   C       -2.64608        15.03888        -6.00396
   N       -2.20941        15.10290        -7.06467
   C       -4.46682        17.10674        -4.48201
   C       -4.25574        17.66754        -5.77502
   C       -4.88249        18.89629        -5.84494
   C       -5.57134        19.11703        -4.58359
   C       -5.32836        18.05759        -3.76498
   C       -5.85790        17.90651        -2.47937
   N       -6.31224        17.79746        -1.42885
   C       -4.88780        19.74271        -6.98478
   C       -5.03207        21.09884        -6.99491
   C       -5.19783        21.94072        -8.16587
   C       -5.50869        21.51730        -9.43211
   C       -5.68458        22.38187       -10.53258
   N       -5.83616        23.03268       -11.46612
   C       -5.73202        20.17553        -9.80683
   N       -5.95313        19.11321       -10.18220
   C       -5.07064        23.32947        -7.74103
   C       -4.87429        23.35651        -6.33095
   C       -4.84201        21.97983        -5.80953
   O       -4.62187        21.64522        -4.66554
   C       -4.73199        24.52692        -5.64296
   C       -4.78493        25.75013        -6.34760
   C       -4.97603        25.73259        -7.75955
   C       -5.11587        24.50398        -8.44500
   C       -5.02400        26.95918        -8.45287
   C       -4.89132        28.14630        -7.78542
   C       -4.70343        28.16217        -6.39520
   C       -4.65165        26.98957        -5.69153
   H        1.23199        -1.72544        -1.28075
   H        1.53808         1.16904        -3.67030
   H        1.56762        -0.61373        -3.68509
   H        3.55236         1.20456        -2.21983
   H        3.88299         0.30624        -3.70419
   H        3.59217        -0.56194        -2.19251
   H       -2.11135        -0.66529         3.19089
   H       -2.83303         0.92882         2.87626
   H       -0.13767         0.37777         4.23311
   H       -1.60600         0.92962         5.04367
   H       -0.76640         1.99468         3.90824
   H       -2.08211         2.90394         2.06334
   H       -0.80766         3.64844        -0.62683
   H       -2.68948         5.09280         2.51688
   H       -2.31927         8.99198        -1.30805
   H       -3.49450         9.73219         1.42301
   H       -3.37735        12.13347         2.63295
   H       -4.88079        11.32343         2.22927
   H       -5.14761        13.50067         3.52664
   H       -6.08843        13.40327         2.03640
   H       -4.98087        15.60885         2.26045
   H       -2.44139        14.20298         1.99148
   H       -2.97720        14.96924         3.34286
   H       -3.81525        15.54031         0.00788
   H       -5.47796        14.94362         0.04136
   H       -4.80886        15.85831        -1.95232
   H       -2.37869        12.98638        -4.09101
   H       -3.66224        17.22110        -6.54959
   H       -6.20347        19.95304        -4.35825
   H       -4.73200        19.23415        -7.92913
   H       -4.58356        24.51899        -4.57325
   H       -5.25216        24.52443        -9.51457
   H       -5.16967        26.94210        -9.52303
   H       -4.93042        29.08044        -8.32542
   H       -4.60002        29.10801        -5.88471
   H       -4.50725        26.99509        -4.62098
*
