# ORCA input file
# SCF done       -176.167644087432          0.000585317811
! CAM-B3LYP def2-SVP def2/J RIJCOSX Grid4 TightSCF
%maxcore 5000
%tddft
    Mode sTDDFT
    Ethresh 5.0
    maxcore 5000
end

%pal
  nprocs 6
  end
* xyz 0 1
   C       -4.36593        -0.46018         6.75689
   S       -4.15848         1.11107         6.10206
   C       -5.64084         0.98559         5.19860
   C       -6.23293        -0.25710         5.41475
   C       -5.49574        -1.06891         6.30904
   C       -7.38714        -0.72614         4.76578
   N       -8.29620        -1.17423         4.22807
   C       -6.06200         2.07137         4.39013
   C       -7.31746         2.22597         3.89154
   C       -7.71741         3.29718         3.05739
   C       -8.97474         3.88243         2.98812
   N      -10.13395         3.51993         3.69513
   O      -11.15072         4.14960         3.45761
   O      -10.06600         2.60925         4.50409
   C       -8.92264         5.02277         2.11708
   C       -7.64612         5.18000         1.67908
   C       -6.84413         4.10689         2.18894
   C       -5.56194         3.78038         1.78180
   C       -5.05581         2.45626         1.58648
   C       -3.89171         2.52650         0.87859
   C       -3.56227         3.89840         0.66302
   N       -2.38278         4.30787         0.02503
   O       -2.16093         5.50654        -0.08982
   O       -1.63789         3.43749        -0.39190
   C       -4.55647         4.70557         1.23341
   C       -4.50517         6.09862         1.40620
   C       -5.23235         6.76865         2.35638
   C       -5.34587         8.14361         2.60636
   N       -4.77963         9.23896         2.00258
   C       -3.86436         9.27452         0.88368
   C       -4.58433         9.05856        -0.44448
   C       -5.23651        10.44334         2.57367
   O       -4.87243        11.53951         2.20624
   C       -6.16073        10.03242         3.61685
   C       -6.19582         8.63464         3.61416
   C       -7.12192         8.18783         4.63453
   O       -7.46626         7.08037         4.98544
   N       -7.58900         9.38397         5.21098
   C       -8.59519         9.36573         6.24653
   C       -9.98730         9.65210         5.68944
   C       -7.03768        10.49609         4.61888
   C       -7.32412        11.81699         4.99977
   C       -6.76783        12.90245         4.37624
   C       -7.02481        14.24337         4.72163
   C       -6.49509        15.35128         4.07465
   C       -6.98329        16.53296         4.68688
   C       -7.86074        16.08885         5.78590
   C       -7.87947        14.73035         5.79434
   C       -8.56412        16.90062         6.68317
   N       -9.15423        17.53398         7.43844
   C       -6.72136        17.84226         4.33518
   C       -7.23231        19.02029         4.93892
   C       -6.74125        20.12038         4.26803
   C       -5.87808        19.64678         3.19669
   C       -5.85498        18.28986         3.22500
   C       -5.12712        17.48542         2.34125
   N       -4.51333        16.86432         1.59528
   C       -7.00759        21.48745         4.53189
   S       -6.31873        22.74959         3.54383
   C       -7.09310        23.98905         4.46567
   C       -7.84962        23.43010         5.49596
   C       -7.79716        22.02656         5.52624
   C       -8.60648        24.15304         6.43626
   N       -9.23688        24.69282         7.22784
   C       -6.88596        25.35801         4.09037
   C       -7.41209        26.42315         4.69639
   H       -3.63600        -0.84998         7.43847
   H       -5.80263        -2.05954         6.59293
   H       -5.32266         2.84499         4.22590
   H       -8.10414         1.55226         4.20692
   H       -9.77766         5.62688         1.88042
   H       -7.30209         5.91055         0.97315
   H       -5.58798         1.56072         1.84202
   H       -3.29482         1.70823         0.52267
   H       -3.78661         6.61443         0.78684
   H       -5.82788         6.18350         3.04656
   H       -3.07304         8.53695         1.03159
   H       -3.41697        10.27257         0.89451
   H       -5.11986         8.11205        -0.45400
   H       -3.85957         9.05456        -1.25306
   H       -5.29607         9.86227        -0.61733
   H       -8.32919        10.08320         7.02762
   H       -8.57233         8.35880         6.67208
   H      -10.02516        10.62739         5.20877
   H      -10.71633         9.62918         6.49434
   H      -10.25728         8.89466         4.95789
   H       -8.01346        11.96415         5.81817
   H       -6.08376        12.74240         3.55255
   H       -5.82529        15.31663         3.23771
   H       -8.43173        14.11918         6.48351
   H       -7.89767        19.03704         5.77826
   H       -5.35413        20.28431         2.50823
   H       -8.32123        21.43355         6.25413
   H       -6.23937        25.49192         3.23200
   H       -8.06079        26.34060         5.55054
   H       -7.20208        27.41675         4.34176
*
