# ORCA input file
# SCF done       -175.474346043620          0.000783115688
! CAM-B3LYP def2-SVP def2/J RIJCOSX Grid4 TightSCF
%maxcore 5000
%tddft
    Mode sTDDFT
    Ethresh 5.0
    maxcore 5000
end

%pal
  nprocs 6
  end
* xyz 0 1
   C       -3.86342        -9.47885         6.31847
   C       -2.71633        -9.44861         5.57440
   C       -2.75630        -9.20709         4.19495
   F       -1.56709        -9.20127         3.55577
   C       -3.91267        -8.98125         3.46179
   C       -5.11184        -9.00854         4.23083
   C       -5.07797        -9.25749         5.64986
   N       -6.29913        -9.24624         6.18700
   S       -7.37268        -8.95456         5.03462
   N       -6.35725        -8.82708         3.79638
   C       -3.92974        -8.75066         2.04500
   C       -5.04945        -8.51867         1.26443
   C       -4.72643        -8.36215        -0.08014
   C       -3.34294        -8.47431        -0.32742
   S       -2.45138        -8.76466         1.09436
   C       -3.11673        -8.34136        -1.71713
   C       -4.36303        -8.14239        -2.35153
   C       -5.41079        -8.14078        -1.34212
   C       -6.75045        -7.97853        -1.54155
   C       -7.30068        -7.77690        -2.82519
   N       -7.75797        -7.61816        -3.86463
   C       -7.67942        -8.00386        -0.47966
   N       -8.44487        -8.02367         0.37392
   C       -4.25498        -8.04260        -3.72991
   C       -2.93715        -8.16670        -4.15893
   S       -1.81455        -8.38757        -2.82333
   C       -2.47665        -8.19311        -5.49776
   C       -1.10504        -8.36622        -5.79352
   C       -0.62212        -8.52708        -7.14110
   N        0.68511        -8.70688        -7.35588
   C        1.52019        -8.72864        -6.34436
   C        1.04006        -8.56825        -5.00491
   N       -0.24064        -8.39817        -4.77503
   C        1.94249        -8.58518        -3.91352
   N        2.69613        -8.60590        -3.05121
   C        2.90295        -8.90646        -6.59455
   N        4.02567        -9.05299        -6.76749
   C       -1.48519        -8.52297        -8.25966
   C       -2.84813        -8.26689        -7.97430
   C       -3.33354        -8.10495        -6.62181
   N       -4.64879        -7.89069        -6.59905
   S       -5.21839        -7.88558        -8.09759
   N       -3.83640        -8.16167        -8.86234
   C       -0.99747        -8.81061        -9.55862
   C       -1.73871        -8.88186       -10.73350
   C       -0.96145        -9.27100       -11.81409
   C        0.38745        -9.49573       -11.46478
   S        0.69549        -9.21195        -9.80691
   C        1.07643        -9.92630       -12.62257
   C        0.17226        -9.97643       -13.70150
   C       -1.13657        -9.55814       -13.23021
   C       -2.28829        -9.46567       -13.95500
   C       -3.50908        -9.05610       -13.37754
   N       -4.50701        -8.72544       -12.91981
   C       -2.34153        -9.77673       -15.33051
   N       -2.39834       -10.02688       -16.44806
   C        0.76026       -10.42878       -14.88185
   C        2.09910       -10.72525       -14.71558
   S        2.64286       -10.42976       -13.06827
   C        3.01181       -11.23612       -15.69769
   C        4.33914       -11.49269       -15.40335
   C        5.21844       -12.00465       -16.36520
   F        6.48925       -12.22141       -15.97978
   C        4.85696       -12.29296       -17.65391
   C        3.51919       -12.04579       -17.99369
   C        2.58846       -11.51764       -17.02737
   N        1.37504       -11.35953       -17.55168
   S        1.40112       -11.82275       -19.08938
   N        2.94389       -12.24931       -19.17998
   H       -3.85762        -9.66463         7.37893
   H       -1.75006        -9.61080         6.02535
   H       -6.03828        -8.47806         1.68228
   H       -5.06567        -7.89923        -4.42035
   H       -2.79067        -8.66430       -10.75521
   H        0.26203       -10.55219       -15.82591
   H        4.72564       -11.30212       -14.41351
   H        5.55412       -12.68840       -18.37207
*
