# ORCA input file
# SCF done       -193.657853112207          0.000482930010
! CAM-B3LYP def2-SVP def2/J RIJCOSX Grid4 TightSCF
%maxcore 5000
%tddft
    Mode sTDDFT
    Ethresh 5.0
    maxcore 5000
end

%pal
  nprocs 6
  end
* xyz 0 1
   C       -0.00371         2.51996        -4.90825
   C       -0.36051         2.51937        -6.22952
   C        0.62010         2.41593        -7.22687
   C        1.94256         2.31541        -6.88959
   C        2.34538         2.31464        -5.53897
   C        3.71200         2.22115        -5.18524
   C        4.06647         2.22295        -3.86378
   C        3.06176         2.30719        -2.85565
   C        1.73750         2.40836        -3.16775
   C        1.34824         2.41673        -4.52684
   C        3.70326         2.25215        -1.52947
   O        3.17859         2.34717        -0.44145
   C        5.14555         2.00244        -1.80066
   C        5.37200         2.17545        -3.21362
   C        6.57228         2.45737        -3.81683
   C        7.76295         2.68548        -3.10139
   N        8.74576         2.91505        -2.55314
   C        6.74130         2.61436        -5.20474
   N        6.94872         2.71798        -6.32998
   C        5.94492         1.60572        -0.76812
   C        7.21125         0.96832        -0.77445
   C        7.68715         0.18313        -1.83973
   C        8.96827        -0.49128        -1.79054
   N        9.17695        -1.23506        -2.88589
   S        7.92963        -1.08309        -3.86603
   N        7.03264        -0.09706        -2.97374
   C        9.81719        -0.41377        -0.67931
   C        9.34556         0.35073         0.41147
   C       10.02382         0.62584         1.58499
   S        9.14034         1.63992         2.61523
   C        7.84408         1.75690         1.51660
   C        8.06185         1.02570         0.36966
   C       11.09476        -1.08931        -0.69282
   C       11.95294        -0.98001        -1.80870
   C       13.19126        -1.70085        -1.88812
   N       13.99599        -1.52697        -2.96087
   C       13.61779        -0.71766        -3.90364
   C       12.40689         0.00984        -3.81294
   N       11.61715        -0.11527        -2.79067
   C       13.62254        -2.55125        -0.84582
   C       12.77080        -2.65558         0.26593
   C       11.52662        -1.92277         0.34922
   N       10.85310        -2.22180         1.46782
   S       11.68903        -3.30463         2.30161
   N       12.93427        -3.46782         1.31559
   C       14.90048        -3.22323        -0.87244
   C       15.74403        -3.17676         0.24914
   C       17.08397        -3.72519         0.21965
   N       17.72839        -3.51618         1.37209
   S       16.75969        -2.72397         2.37265
   N       15.48801        -2.57458         1.41814
   C       17.64278        -4.29919        -0.93934
   C       16.74704        -4.46133        -2.03170
   C       16.97000        -5.17953        -3.18455
   S       15.61251        -5.19383        -4.20892
   C       14.69204        -4.25946        -3.13555
   C       15.39963        -3.92135        -1.99611
   C       19.00565        -4.68910        -0.90854
   C       19.91960        -4.64611        -1.92629
   C       21.27614        -5.14699        -1.84394
   C       21.73598        -6.07643        -0.94588
   C       23.06110        -6.55482        -0.91684
   N       24.12733        -6.97452        -0.83942
   C       20.93503        -6.71435         0.02402
   N       20.34087        -7.30311         0.81105
   C       22.03674        -4.57131        -2.94579
   C       21.14859        -3.79887        -3.74703
   C       21.57676        -3.13293        -4.85821
   C       22.94033        -3.20707        -5.22364
   C       23.44111        -2.53636        -6.35630
   C       24.76792        -2.61062        -6.68409
   C       25.65118        -3.36137        -5.89468
   C       25.19579        -4.02740        -4.78928
   C       23.83620        -3.97146        -4.42240
   C       23.36197        -4.65498        -3.27839
   C       19.79427        -3.83475        -3.16188
   O       18.81545        -3.24753        -3.57629
   H       -0.75443         2.59918        -4.13541
   H       -1.39953         2.59832        -6.51284
   H        0.32241         2.41723        -8.26486
   H        2.70141         2.23893        -7.65458
   H        4.44651         2.14075        -5.97139
   H        0.99326         2.48179        -2.38858
   H        5.49517         1.74593         0.21031
   H       10.99532         0.28517         1.87543
   H        7.00109         2.36857         1.76484
   H       14.28775        -0.60628        -4.74521
   H       12.11099         0.71803        -4.57464
   H       17.84819        -5.72541        -3.46107
   H       13.67352        -4.02650        -3.36743
   H       19.36251        -4.95515         0.08039
   H       20.88449        -2.55320        -5.45075
   H       22.75634        -1.95869        -6.96009
   H       25.14382        -2.09025        -7.55242
   H       26.69509        -3.40933        -6.16638
   H       25.87178        -4.60805        -4.17875
   H       24.06450        -5.22019        -2.68639
*
