# ORCA input file
# SCF done       -230.561498370934          0.000912831955
! CAM-B3LYP def2-SVP def2/J RIJCOSX Grid4 TightSCF
%maxcore 5000
%tddft
    Mode sTDDFT
    Ethresh 5.0
    maxcore 5000
end

%pal
  nprocs 6
  end
* xyz 0 1
   C       -2.12742        -0.82413         3.44356
   C       -2.90242        -1.96137         3.60530
   C       -2.42127        -3.21512         3.23661
   C       -1.14661        -3.36220         2.70006
   C       -0.37759        -2.22677         2.54420
   C       -0.85373        -0.95244         2.90382
   C        0.17095         0.04729         2.61648
   C        0.07515         1.38796         2.84001
   C       -1.05754         2.02729         3.39530
   N       -1.94442         2.60194         3.84029
   C        1.09597         2.32370         2.55194
   N        1.88107         3.13353         2.34583
   C        1.32229        -0.65834         2.04921
   C        2.49340        -0.19232         1.60959
   C        0.99643        -2.12051         2.01116
   O        1.71602        -3.00925         1.63284
   C       -3.31603        -4.42026         3.37366
   F       -5.00962        -3.43097         2.06421
   F       -2.59194        -5.56648         3.48113
   F       -4.06890        -4.35702         4.49873
   C       -4.24964        -4.56947         2.13361
   C       -3.45811        -4.78616         0.88252
   C       -3.67944        -5.97983         0.31497
   C       -4.67805        -6.80685         0.97357
   S       -5.36801        -6.04504         2.35431
   C       -4.80298        -7.98087         0.28396
   C       -3.89167        -7.96763        -0.83997
   C       -3.17221        -6.71884        -0.84107
   C       -2.21325        -6.29413        -1.71524
   C       -1.79155        -7.08749        -2.80324
   N       -1.45302        -7.73240        -3.68829
   C       -1.59137        -5.03532        -1.58179
   N       -1.09346        -4.00893        -1.46440
   C       -3.95232        -9.10961        -1.59212
   C       -4.89485       -10.02620        -1.08395
   S       -5.72266        -9.44067         0.36665
   C       -5.22136       -11.27245        -1.57530
   C       -6.18999       -12.11031        -0.97618
   C       -6.37141       -13.35583        -1.64200
   N       -7.30111       -14.21130        -1.23766
   C       -8.01644       -13.86058        -0.17624
   C       -9.11451       -14.78322         0.21973
   O       -9.45944       -15.71634        -0.46808
   C       -9.77556       -14.44763         1.49662
   C       -9.52047       -13.33248         2.18608
   C       -8.54345       -12.31315         1.75591
   O       -8.37290       -11.27841         2.36110
   C       -7.78213       -12.65630         0.52638
   N       -6.87486       -11.78188         0.10959
   C       -5.51291       -13.50461        -2.76538
   S       -4.54082       -12.05842        -2.98367
   C       -5.44178       -14.60815        -3.59026
   C       -6.10661       -15.83474        -3.37033
   C       -5.84154       -16.74830        -4.35141
   C       -4.98187       -16.23687        -5.39919
   S       -4.47182       -14.62180        -5.07178
   C       -4.83774       -17.18574        -6.36629
   C       -5.59359       -18.36924        -5.97965
   C       -6.20198       -18.10622        -4.67470
   C       -6.90385       -18.99030        -3.90901
   C       -7.20245       -20.29714        -4.34959
   N       -7.45618       -21.35848        -4.70110
   C       -7.33181       -18.68591        -2.59716
   N       -7.64273       -18.48332        -1.51301
   C       -5.56063       -19.38192        -6.85607
   C       -4.70470       -19.10624        -8.05127
   S       -4.05412       -17.37150        -7.89440
   C       -3.49975       -20.09359        -8.15047
   C       -2.72843       -19.91096        -9.42988
   C       -3.15449       -20.57655       -10.57428
   C       -2.45416       -20.35902       -11.74367
   C       -1.34365       -19.49581       -11.79500
   C       -0.93356       -18.83743       -10.64280
   C       -1.63431       -19.05024        -9.46654
   C       -0.80946       -19.47025       -13.15345
   C        0.28641       -18.78055       -13.57801
   C        1.08584       -17.96115       -12.74783
   N        1.76993       -17.28354       -12.12497
   C        0.77835       -18.79694       -14.90394
   N        1.22874       -18.76781       -15.95798
   C       -1.65784       -20.33915       -13.97189
   C       -1.61369       -20.61514       -15.27717
   C       -2.70534       -20.93522       -13.08049
   O       -3.56354       -21.71548       -13.40559
   F       -3.97310       -21.36067        -8.03899
   F       -5.41045       -19.21277        -9.22073
   F       -2.72015       -19.90431        -7.05226
   H       -2.52431         0.13379         3.73618
   H       -3.89368        -1.87853         4.02360
   H       -0.75606        -4.32876         2.42048
   H        2.76902         0.84732         1.61445
   H        3.21409        -0.89667         1.22406
   H       -2.79795        -4.01098         0.53858
   H       -3.37010        -9.32270        -2.47148
   H      -10.51372       -15.16373         1.83116
   H      -10.04034       -13.10608         3.10712
   H       -6.74454       -15.97482        -2.51512
   H       -6.05567       -20.33394        -6.78378
   H       -4.00119       -21.24508       -10.55742
   H       -0.08882       -18.16871       -10.64305
   H       -1.32140       -18.55053        -8.56257
   H       -0.88900       -20.20376       -15.95717
   H       -2.34926       -21.29195       -15.68326
*
