# ORCA input file
# SCF done       -201.465548965341          0.000627868958
! CAM-B3LYP def2-SVP def2/J RIJCOSX Grid4 TightSCF
%maxcore 5000
%tddft
    Mode sTDDFT
    Ethresh 5.0
    maxcore 5000
end

%pal
  nprocs 6
  end
* xyz 0 1
   C       -8.18540        -4.96359         2.75681
   C       -7.40629        -5.68514         1.89099
   C       -7.12740        -7.06085         2.03915
   N       -6.86530        -8.17638         2.10342
   C       -6.75356        -5.17372         0.74904
   N       -6.18315        -4.83387        -0.18770
   C       -8.81780        -5.49134         3.96166
   C       -9.46697        -4.42883         4.63885
   C      -10.15590        -4.60512         5.81438
   C      -10.21230        -5.89667         6.34782
   C       -9.56450        -6.95404         5.66427
   C       -8.86472        -6.77314         4.47722
   S       -9.76415        -8.46707         6.49296
   C      -10.70214        -7.67156         7.72909
   C      -10.85826        -6.34017         7.53357
  Br      -11.38639        -8.67229         9.15917
   C       -9.27684        -3.18606         3.87666
   O       -9.68781        -2.07958         4.18339
   C       -8.50961        -3.54892         2.67965
   C       -8.21323        -2.70728         1.63986
   C       -8.50035        -1.34313         1.46579
   C       -8.17401        -0.66966         0.28203
   C       -8.54906         0.65993         0.30863
   C       -9.15577         1.01848         1.53593
   S       -9.28182        -0.27770         2.63280
   C       -9.51003         2.38755         1.46270
   C       -9.13861         2.89381         0.20119
   C       -8.51669         1.82439        -0.56402
   C       -8.01561         1.89795        -1.82928
   C       -7.43951         0.78297        -2.47599
   N       -6.97426        -0.11878        -3.00891
   C       -8.04028         3.09131        -2.58306
   N       -8.05166         4.05598        -3.20218
   C       -9.46901         4.23635         0.03713
   C      -10.08130         4.75075         1.16895
   S      -10.25143         3.56802         2.44736
   C      -10.55685         6.07485         1.32843
   N      -10.54294         6.96052         0.37403
   C      -11.06244         8.11167         0.79093
   C      -11.50317         8.15760         2.12826
   S      -11.23697         6.63770         2.87894
   N      -12.03159         9.30519         2.54284
   C      -12.03882        10.18445         1.58229
   S      -11.35059         9.62532         0.03436
   C      -12.56679        11.48930         1.73436
   C      -13.07048        12.02656         2.90853
   C      -13.54085        13.32234         2.71737
   C      -13.39800        13.76678         1.38800
   S      -12.67314        12.59420         0.38224
   C      -13.93643        15.07375         1.28571
   C      -14.41171        15.45776         2.55581
   C      -14.18152        14.37263         3.49389
   C      -14.53226        14.34643         4.81098
   C      -14.27170        13.23847         5.64539
   N      -14.05417        12.34674         6.33167
   C      -15.18176        15.44329         5.41714
   N      -15.70692        16.34404         5.89425
   C      -15.01192        16.70995         2.55279
   C      -15.01307        17.28805         1.29176
   S      -14.20900        16.26739         0.10488
   C      -15.53171        18.53941         0.88994
   C      -16.45272        19.32184         1.51579
   C      -17.38243        19.09608         2.60433
   C      -17.99575        17.91557         2.93482
   C      -18.99912        17.80082         3.92068
   N      -19.82099        17.65394         4.70757
   C      -17.77600        16.69617         2.26568
   N      -17.65095        15.68722         1.73201
   C      -17.77716        20.40638         3.11121
   C      -17.31703        21.40204         2.21212
   C      -16.54337        20.76141         1.13283
   O      -16.04128        21.27979         0.16333
   C      -17.57797        22.73839         2.39683
   C      -18.31343        23.10919         3.52748
   C      -18.74837        22.10849         4.43069
   C      -18.49353        20.75597         4.23955
   S      -19.62383        22.78966         5.76633
   C      -19.40468        24.38664         5.10109
   C      -18.70855        24.41104         3.93937
  Br      -20.11258        25.86958         6.00321
   H      -10.63778        -3.77408         6.30501
   H       -8.39145        -7.61231         3.99592
   H      -11.40676        -5.69670         8.19689
   H       -7.69237        -3.13777         0.79299
   H       -7.68910        -1.16285        -0.54192
   H       -9.29112         4.83486        -0.83695
   H      -13.08081        11.47440         3.82987
   H      -15.39883        17.20555         3.42431
   H      -15.10430        18.97095        -0.01024
   H      -17.22623        23.47508         1.69186
   H      -18.83550        20.02893         4.95742
   H      -18.48204        25.30912         3.39437
*
