# ORCA input file
# SCF done       -222.108254128017          0.000450052884
! CAM-B3LYP def2-SVP def2/J RIJCOSX Grid4 TightSCF
%maxcore 5000
%tddft
    Mode sTDDFT
    Ethresh 5.0
    maxcore 5000
end

%pal
  nprocs 6
  end
* xyz 0 1
   C        0.58439         4.28412         1.89558
   C        1.19519         3.12074         1.50601
   C        2.58819         2.90212         1.56571
   N        3.71052         2.66324         1.59060
   C        0.54422         1.99050         0.96731
   N        0.09265         1.03792         0.51193
   C        1.27124         5.47098         2.39513
   C        0.31673         6.49924         2.59640
   C        0.65382         7.74746         3.06090
   C        2.00083         7.99375         3.34557
   C        2.94830         6.96088         3.14511
   C        2.60601         5.69961         2.67226
   S        4.55309         7.47631         3.56317
   C        3.93973         9.05031         3.99563
   C        2.60136         9.18518         3.83545
  Br        5.12256        10.36518         4.61770
   C       -1.01742         5.99336         2.23950
   O       -2.06242         6.62018         2.27534
   C       -0.83481         4.59013         1.84940
   C       -1.84237         3.70598         1.56331
   C       -3.23049         3.90385         1.48994
   C       -4.10951         2.84169         1.23731
   C       -5.42750         3.24738         1.18598
   C       -5.56815         4.64454         1.38618
   S       -4.08515         5.43593         1.66344
   C       -6.94238         4.96647         1.30502
   C       -7.66969         3.78038         1.05727
   C       -6.74354         2.66401         0.97770
   C       -7.04875         1.35311         0.75895
   C       -6.05955         0.34749         0.71363
   N       -5.26110        -0.47443         0.68163
   C       -8.37629         0.91362         0.56806
   N       -9.45246         0.55068         0.41074
   C       -9.03525         3.99689         0.95658
   C       -9.36322         5.33938         1.11797
   S       -7.95155         6.34288         1.40154
   C      -10.66632         5.90131         1.06180
   C      -10.88460         7.29098         1.19200
   C      -12.19026         7.87650         1.11414
   N      -12.32224         9.21257         1.23505
   C      -11.27404         9.94691         1.42331
   C       -9.98040         9.36614         1.50448
   N       -9.81600         8.08823         1.38937
   F       -8.90363        10.11841         1.69800
   F      -11.44393        11.25907         1.53455
   C      -13.35736         7.10788         0.91065
   C      -13.14982         5.71234         0.79314
   C      -11.83214         5.12215         0.86470
   N      -11.88612         3.79643         0.72466
   S      -13.40649         3.33693         0.52631
   N      -14.08845         4.78330         0.60391
   C      -14.64158         7.70790         0.82443
   C      -15.85093         7.04678         0.63271
   C      -16.92094         7.92604         0.58003
   C      -16.52975         9.27455         0.73283
   S      -14.84141         9.44620         0.94614
   C      -17.68901        10.07870         0.65763
   C      -18.81255         9.24690         0.45140
   C      -18.36275         7.86631         0.39975
   C      -19.12484         6.75119         0.21301
   C      -18.56538         5.45571         0.17744
   N      -18.11909         4.40028         0.14304
   C      -20.52291         6.81888         0.03153
   N      -21.65761         6.86744        -0.12424
   C      -19.99770         9.96061         0.33867
   C      -19.80800        11.32826         0.49145
   S      -18.10686        11.72657         0.73145
   C      -20.81780        12.30606         0.35325
   C      -20.82043        13.62416         0.69164
   C      -19.97535        14.42352         1.55227
   C      -19.36100        13.99546         2.70068
   C      -18.64016        14.84268         3.56599
   N      -18.03422        15.49406         4.29097
   C      -19.47977        12.67880         3.19023
   N      -19.59543        11.62631         3.63387
   C      -20.15142        15.81673         1.15817
   C      -21.25361        15.89966         0.26912
   C      -21.77772        14.54357         0.01297
   O      -22.73934        14.22776        -0.64706
   C      -21.69778        17.09473        -0.24258
   C      -21.01595        18.25787         0.13063
   C      -19.90819        18.16165         1.00775
   C      -19.46403        16.95440         1.53369
   S      -19.20828        19.71877         1.32600
   C      -20.39848        20.46953         0.29578
   C      -21.27492        19.59981        -0.26078
  Br      -20.36887        22.32797         0.05025
   H       -0.09744         8.50860         3.20166
   H        3.36553         4.94764         2.53982
   H        2.05886        10.08674         4.05404
   H       -1.55357         2.67942         1.37175
   H       -3.76327         1.83212         1.10213
   H       -9.78184         3.24625         0.77467
   H      -15.90613         5.97796         0.53991
   H      -20.96899         9.52864         0.17749
   H      -21.70120        11.97484        -0.18619
   H      -22.54495        17.13244        -0.90917
   H      -18.61288        16.92521         2.19399
   H      -22.07159        19.89062        -0.92083
*
