# ORCA input file
# SCF done       -219.582098306825          0.000843186923
! CAM-B3LYP def2-SVP def2/J RIJCOSX Grid4 TightSCF
%maxcore 5000
%tddft
    Mode sTDDFT
    Ethresh 5.0
    maxcore 5000
end

%pal
  nprocs 6
  end
* xyz 0 1
   C        3.41820        -0.07973         2.20029
   C        4.75912        -0.34438         2.20971
   F        5.64194         0.65455         2.34147
   C        5.22993        -1.66630         2.08157
   F        6.55005        -1.89698         2.09351
   C        4.35297        -2.70593         1.94580
   C        2.96552        -2.46547         1.93176
   C        2.48804        -1.12932         2.06236
   C        1.09904        -0.86413         2.05411
   C        0.21658        -1.90332         1.92187
   C        0.70219        -3.23362         1.78812
   C        2.03652        -3.52041         1.78894
   C       -0.43643        -4.16338         1.64698
   O       -0.36592        -5.35768         1.43732
   C       -1.65214        -3.31918         1.71410
   C       -1.24285        -1.93997         1.89343
   C       -2.07069        -0.86417         2.08508
   C       -3.47874        -0.92324         2.16207
   N       -4.62120        -0.88455         2.27117
   C       -1.61453         0.45864         2.26289
   N       -1.30436         1.55444         2.40736
   C       -2.92629        -3.73278         1.42935
   C       -3.42907        -5.05637         1.35360
   C       -4.46050        -5.31923         0.42909
   C       -4.94685        -6.65612         0.17219
   N       -5.91874        -6.65633        -0.75059
   S       -6.16033        -5.15869        -1.25176
   N       -5.07033        -4.41623        -0.34379
   C       -4.46069        -7.77287         0.87084
   C       -3.50812        -7.51160         1.88112
   C       -2.90032        -8.43200         2.71841
   S       -1.86815        -7.69898         3.84279
   C       -2.15833        -6.14675         3.21601
   C       -3.01824        -6.16712         2.14012
   C       -4.97430        -9.08316         0.53499
   C       -5.46638        -9.99692         1.48799
   C       -6.01442       -11.27265         1.10177
   N       -6.56150       -12.07169         2.03176
   C       -6.52756       -11.71830         3.28727
   C       -5.93596       -10.46834         3.68057
   N       -5.45606        -9.64538         2.78715
   C       -5.87528       -10.10359         5.04958
   N       -5.81598        -9.83905         6.16220
   C       -7.08433       -12.58178         4.26460
   N       -7.49641       -13.26864         5.08290
   C       -6.05477       -11.69829        -0.24401
   C       -5.59449       -10.77352        -1.19717
   C       -5.05967        -9.48650        -0.80877
   N       -4.58812        -8.81222        -1.86206
   S       -4.81236        -9.67981        -3.18360
   N       -5.49745       -10.96545        -2.51750
   C       -6.45828       -13.04188        -0.58029
   C       -5.98204       -14.12786         0.17055
   C       -6.30824       -15.50014        -0.15515
   N       -5.68248       -16.35778         0.66102
   S       -4.79915       -15.53325         1.71280
   N       -5.12392       -14.05963         1.19866
   C       -7.12543       -15.83788        -1.24900
   C       -7.61999       -14.73706        -2.00676
   C       -8.49682       -14.80372        -3.06793
   S       -8.93704       -13.26264        -3.63983
   C       -7.97532       -12.47490        -2.48814
   C       -7.30126       -13.36235        -1.67010
   C       -7.38767       -17.17259        -1.65168
   C       -7.37447       -18.33364        -0.93645
   C       -7.26111       -19.62093        -1.67615
   O       -7.37578       -19.78078        -2.87014
   C       -6.93507       -20.63125        -0.65070
   C       -6.62261       -21.94963        -0.81466
   C       -6.31802       -22.72972         0.32354
   C       -6.33891       -22.12202         1.61247
   C       -6.02865       -22.90452         2.74281
   C       -5.71598       -24.22740         2.60066
   C       -5.69731       -24.82724         1.32568
   C       -5.99171       -24.09501         0.20980
   F       -5.38636       -26.12626         1.21577
   F       -5.42241       -24.96944         3.67675
   C       -6.67288       -20.75481         1.75120
   C       -6.97346       -20.02027         0.63565
   C       -7.38009       -18.62592         0.47654
   C       -7.87762       -17.82487         1.47206
   C       -8.50139       -16.58575         1.22949
   N       -9.04181       -15.58744         1.05790
   C       -7.88224       -18.18072         2.83535
   N       -7.88025       -18.41952         3.95808
   H        3.07443         0.93794         2.30062
   H        4.72958        -3.71214         1.84848
   H        0.76977         0.15779         2.14955
   H        2.37838        -4.53905         1.68536
   H       -3.64694        -2.97980         1.13093
   H       -3.03184        -9.49349         2.73503
   H       -1.70363        -5.29555         3.67878
   H       -8.92263       -15.67513        -3.52167
   H       -7.95833       -11.40603        -2.45098
   H       -7.55773       -17.31557        -2.71487
   H       -6.60722       -22.39246        -1.79894
   H       -6.04177       -22.46225         3.72670
   H       -5.97318       -24.56876        -0.75920
   H       -6.67546       -20.32004         2.73782
*
