# ORCA input file
# SCF done       -266.541679074668          0.000972561487
! CAM-B3LYP def2-SVP def2/J RIJCOSX Grid4 TightSCF
%maxcore 5000
%tddft
    Mode sTDDFT
    Ethresh 5.0
    maxcore 5000
end

%pal
  nprocs 6
  end
* xyz 0 1
   C        0.42705        -4.73279        -1.14148
   C        0.16013        -5.99689        -0.47514
   C       -0.23429        -6.09155         0.86398
   C       -0.53145        -7.31221         1.45530
   C       -0.45686        -8.48515         0.70854
   C       -0.09649        -8.41918        -0.63516
   C        0.19580        -7.18851        -1.20735
   F        0.54466        -7.13917        -2.49659
   F       -0.03224        -9.53399        -1.36329
   F       -0.73485        -9.65878         1.27314
   F       -0.89363        -7.36179         2.73849
   F       -0.36076        -4.98300         1.60126
   C        1.11188        -3.68225        -0.63756
   C        1.13784        -2.41219        -1.39606
   C       -0.03413        -1.84886        -1.90222
   C       -0.02694        -0.64598        -2.60061
   C        1.17538         0.02225        -2.81627
   C        2.35963        -0.52348        -2.32790
   C        2.32959        -1.72325        -1.62613
   F        3.48591        -2.23520        -1.19391
   F        3.51818         0.09892        -2.53923
   F        1.19327         1.16846        -3.48947
   F       -1.16572        -0.13505        -3.06529
   F       -1.20351        -2.46036        -1.69999
   C        1.88230        -3.68650         0.58210
   C        2.10592        -2.60386         1.40569
   C        2.92902        -2.92627         2.48481
   C        3.35021        -4.26827         2.46831
   S        2.72880        -5.12465         1.13218
   C        4.17202        -4.50950         3.59663
   C        4.26610        -3.30890         4.32954
   C        3.49817        -2.27553         3.65105
   C        3.35491        -0.96913         4.01688
   C        3.95240        -0.44047         5.18046
   N        4.43574        -0.00108         6.12276
   C        2.60090        -0.06560         3.23880
   N        1.99680         0.66314         2.59136
   C        5.05055        -3.43508         5.46730
   C        5.55650        -4.72229         5.60686
   S        5.05718        -5.79144         4.31100
   C        6.38822        -5.20019         6.65087
   C        6.84194        -6.54158         6.65750
   C        7.68334        -7.08542         7.68251
   N        8.06251        -8.37557         7.59845
   C        7.65894        -9.09649         6.59046
   C        6.83195        -8.56134         5.58221
   N        6.44527        -7.31819         5.63310
   C        8.11746        -6.28649         8.77395
   C        7.66493        -4.95035         8.76604
   C        6.81863        -4.40603         7.73341
   N        6.53485        -3.12153         7.96297
   S        7.24533        -2.64837         9.31533
   N        7.95598        -4.03694         9.69561
   C        8.95234        -6.75438         9.82467
   C        9.48559        -8.02593         9.99661
   C       10.25485        -8.11715        11.14779
   C       10.31996        -6.90352        11.86440
   S        9.42634        -5.65640        11.11475
   C       11.13387        -7.10720        13.00779
   C       11.56356        -8.44650        13.01921
   C       11.06636        -9.11185        11.82982
   C       11.39940       -10.36675        11.40663
   C       12.33825       -11.13245        12.12821
   N       13.13980       -11.69982        12.72193
   C       10.88196       -10.93122        10.22247
   N       10.45193       -11.39434         9.26595
   C       12.35059        -8.75749        14.12522
   C       12.56613        -7.66259        14.93315
   S       11.73830        -6.23020        14.33833
   C       13.39030        -7.60620        16.11477
   C       13.00556        -6.62219        17.14897
   C       13.94393        -5.75422        17.70735
   C       13.58830        -4.81146        18.66614
   C       12.26690        -4.72734        19.09667
   C       11.31429        -5.59075        18.56246
   C       11.68929        -6.52174        17.60047
   F       10.76093        -7.35567        17.12319
   F       10.04892        -5.52508        18.97457
   F       11.91737        -3.82976        20.01407
   F       14.50662        -3.98938        19.17162
   F       15.21448        -5.80550        17.30207
   C       14.45355        -8.41150        16.33678
   C       15.04743        -9.35967        15.40276
   C       15.31481        -9.06551        14.06201
   C       15.89557        -9.99329        13.20885
   C       16.25014       -11.25374        13.68398
   C       16.02616       -11.56460        15.02248
   C       15.44228       -10.62126        15.85870
   F       15.22655       -10.93550        17.14070
   F       16.37648       -12.75807        15.49916
   F       16.81387       -12.14196        12.87213
   F       16.12032        -9.67302        11.93317
   F       15.01860        -7.85358        13.57642
   H        0.02867        -4.66332        -2.14399
   H        1.66382        -1.63818         1.23837
   H        5.26351        -2.65869         6.17897
   H        7.99263       -10.12438         6.56914
   H        6.49163        -9.14883         4.74179
   H        9.29641        -8.81897         9.29750
   H       12.72362        -9.73833        14.35270
   H       14.91567        -8.40072        17.31433
*
