# ORCA input file
# SCF done       -190.430158659467          0.000295419478
! CAM-B3LYP def2-SVP def2/J RIJCOSX Grid4 TightSCF
%maxcore 5000
%tddft
    Mode sTDDFT
    Ethresh 5.0
    maxcore 5000
end

%pal
  nprocs 6
  end
* xyz 0 1
   C       13.01202         5.22459       -12.83309
   C       12.37873         6.33938       -13.31392
   C       12.89778         7.24151       -14.26077
   N       13.26528         8.01202       -15.02800
   C       11.08609         6.66047       -12.84515
   N       10.03745         6.92508       -12.46498
   N       14.24709         4.76137       -13.15640
   C       15.12867         5.39638       -14.10691
   C       14.65558         3.60354       -12.50779
   O       15.72820         3.07855       -12.69264
   C       13.61221         3.14084       -11.59245
   S       12.22351         4.19614       -11.64709
   C       13.77647         2.03528       -10.82049
   C       12.87396         1.48405        -9.89224
   C       13.12177         0.37171        -9.09187
   C       12.05143         0.07648        -8.26148
   C       10.96391         0.96540        -8.42908
   S       11.27350         2.16138        -9.60432
   C        9.93135         0.59866        -7.53911
   C       10.36667        -0.52371        -6.79804
   C       11.70495        -0.88943        -7.23054
   C       12.47169        -1.91642        -6.76478
   C       13.76507        -2.17406        -7.26703
   N       14.81593        -2.38368        -7.67445
   C       12.02349        -2.78853        -5.74955
   N       11.66715        -3.50024        -4.92439
   C        9.42828        -0.95396        -5.87369
   C        8.27516        -0.17513        -5.90383
   S        8.35433         1.10383        -7.10453
   C        7.13651        -0.32282        -5.07453
   C        6.00849         0.51918        -5.22472
   C        4.83777         0.43795        -4.38718
   N        3.83104         1.29909        -4.59298
   C        3.91276         2.18706        -5.55277
   C        5.06546         2.25111        -6.40024
   N        6.06540         1.42746        -6.20549
   C        5.14212         3.19596        -7.45350
   N        5.18100         3.96563        -8.30028
   C        2.84908         3.10550        -5.75114
   N        2.02521         3.87502        -5.94882
   C        4.74932        -0.51930        -3.34320
   C        5.87356        -1.36523        -3.20322
   C        7.04143        -1.28360        -4.04332
   N        7.95411        -2.19289        -3.69858
   S        7.41488        -3.05633        -2.46307
   N        5.99322        -2.32831        -2.28878
   C        3.64444        -0.64815        -2.46134
   C        2.43677         0.04384        -2.47749
   C        1.60241        -0.33747        -1.43815
   C        2.17602        -1.32876        -0.61062
   S        3.73265        -1.79990        -1.13396
   C        1.26290        -1.62730         0.42141
   C        0.10499        -0.83082         0.25553
   C        0.28144        -0.00177        -0.92695
   C       -0.59835         0.89186        -1.45961
   C       -1.86519         1.16197        -0.89643
   N       -2.89781         1.40507        -0.46316
   C       -0.30088         1.61073        -2.63929
   N       -0.06476         2.18551        -3.60221
   C       -0.85462        -1.04739         1.23374
   C       -0.45186        -2.00286         2.16015
   S        1.15788        -2.63746         1.78592
   C       -1.06744        -2.53696         3.31037
   C       -2.28024        -2.28933         3.88279
   C       -3.36256        -1.39156         3.48896
   O       -3.40070        -0.65200         2.53110
   N       -4.41793        -1.48207         4.38845
   C       -4.26491        -2.34479         5.42595
   C       -5.14983        -2.61007         6.43853
   C       -6.41972        -2.02801         6.60353
   N       -7.46414        -1.59237         6.79604
   C       -4.80261        -3.54714         7.43511
   N       -4.52357        -4.30691         8.24728
   S       -2.71643        -3.15159         5.35092
   C       -5.59684        -0.67448         4.18083
   H       14.67002         5.43468       -15.09519
   H       16.03421         4.79015       -14.14609
   H       15.37880         6.40839       -13.78776
   H       14.72647         1.52580       -10.93334
   H       14.04818        -0.17226        -9.13028
   H        9.53977        -1.77993        -5.19555
   H        2.21231         0.78409        -3.22245
   H       -1.80545        -0.54998         1.29602
   H       -0.46241        -3.27354         3.82854
   H       -5.42401        -0.09279         3.27471
   H       -5.75757        -0.00143         5.02314
   H       -6.47762        -1.30336         4.05017
*
