# ORCA input file
# SCF done       -206.552039095204          0.000893050249
! CAM-B3LYP def2-SVP def2/J RIJCOSX Grid4 TightSCF
%maxcore 5000
%tddft
    Mode sTDDFT
    Ethresh 5.0
    maxcore 5000
end

%pal
  nprocs 6
  end
* xyz 0 1
   C       -3.17717        -3.36245         2.91816
   C       -4.40519        -2.73120         2.83882
   N       -4.88394        -1.89191         3.80996
   C       -4.20724        -1.62466         4.87452
   C       -2.92793        -2.20012         5.07642
   C       -2.41413        -3.09190         4.06313
   N       -1.22237        -3.49732         4.47478
   O       -1.01933        -2.90397         5.64377
   N       -2.02066        -2.12443         6.02990
   C       -5.32098        -2.88039         1.73300
   C       -5.10120        -3.62520         0.62601
   C       -6.02479        -3.78849        -0.44202
   C       -6.15025        -4.91033        -1.24743
   N       -5.33308        -6.05696        -1.28249
   O       -4.35799        -6.10615        -0.55042
   O       -5.64945        -6.93986        -2.05821
   C       -7.32569        -4.78297        -2.06932
   C       -7.94028        -3.61098        -1.77247
   C       -7.14081        -2.89587        -0.81426
   C       -7.27699        -1.56281        -0.50198
   C       -6.23563        -0.64733        -0.11080
   C       -6.72728         0.61359        -0.14974
   C       -8.12223         0.56070        -0.51654
   N       -8.94831         1.70226        -0.44455
   O      -10.15810         1.55492        -0.50625
   O       -8.39771         2.77438        -0.28335
   C       -8.48663        -0.75528        -0.74433
   C       -9.77150        -1.29514        -1.03766
   C      -10.64578        -0.75108        -1.92009
   C      -11.94573        -1.21954        -2.24070
   N      -12.83362        -1.88741        -1.43893
   C      -12.77171        -2.04815        -0.00191
   C      -12.79839        -0.70074         0.71263
   C      -14.03106        -2.18670        -2.12665
   O      -14.96072        -2.78146        -1.62750
   C      -13.82232        -1.66616        -3.46315
   C      -12.54488        -1.07736        -3.49667
   C      -12.29783        -0.59835        -4.84267
   O      -11.34821        -0.05142        -5.35214
   N      -13.48592        -0.92105        -5.53891
   C      -13.62593        -0.63131        -6.94622
   C      -13.37403        -1.86707        -7.80727
   C      -14.39905        -1.54869        -4.73441
   C      -15.68303        -1.96708        -5.16042
   C      -16.62053        -2.42693        -4.29229
   C      -17.94997        -2.78400        -4.67756
   C      -19.08139        -2.26103        -4.08106
   N      -19.10007        -1.28797        -3.06242
   O      -20.18137        -0.99505        -2.58887
   O      -18.03776        -0.78940        -2.72821
   C      -20.26074        -2.71180        -4.77484
   C      -19.87285        -3.54899        -5.76173
   C      -18.43389        -3.71328        -5.71565
   C      -17.68586        -4.64745        -6.39295
   C      -16.24872        -4.70498        -6.47494
   C      -15.89732        -5.47381        -7.53307
   C      -17.08875        -6.02307        -8.12511
   N      -17.03764        -6.90347        -9.22025
   O      -15.93681        -7.15437        -9.67808
   O      -18.08179        -7.35569        -9.66476
   C      -18.19527        -5.62892        -7.38296
   C      -19.49092        -6.18958        -7.49392
   C      -20.34468        -6.36058        -6.44804
   C      -21.62199        -6.99020        -6.52160
   C      -22.44074        -7.12109        -7.65759
   N      -23.54514        -7.90614        -7.68332
   C      -24.01553        -8.50273        -6.63894
   C      -23.39879        -8.30829        -5.37840
   C      -22.16850        -7.55986        -5.33859
   N      -21.75735        -7.55384        -4.08496
   O      -22.66932        -8.23794        -3.39727
   N      -23.65737        -8.70288        -4.14725
   C      -22.19525        -6.38378        -8.88397
   C      -22.70591        -6.74647       -10.05875
   H       -2.81046        -4.03698         2.16420
   H       -4.64518        -0.95489         5.60022
   H       -6.25369        -2.34999         1.86570
   H       -4.21029        -4.23428         0.55155
   H       -7.62530        -5.51994        -2.79004
   H       -8.79806        -3.20537        -2.27197
   H       -5.21988        -0.92878         0.08154
   H       -6.20894         1.53020         0.05781
   H      -10.00294        -2.23413        -0.55351
   H      -10.32217         0.07310        -2.54216
   H      -11.88757        -2.62383         0.27879
   H      -13.65843        -2.63090         0.26456
   H      -11.96625        -0.07170         0.40489
   H      -12.74314        -0.85697         1.78611
   H      -13.72483        -0.17876         0.48665
   H      -12.87520         0.13045        -7.17343
   H      -14.61863        -0.21561        -7.13725
   H      -12.37304        -2.24926        -7.62346
   H      -13.45461        -1.60290        -8.85769
   H      -14.09221        -2.65496        -7.59034
   H      -15.93351        -1.85120        -6.20616
   H      -16.40553        -2.41994        -3.22865
   H      -21.25245        -2.37990        -4.53528
   H      -20.51495        -4.00680        -6.48609
   H      -15.57822        -4.19184        -5.81744
   H      -14.90903        -5.68778        -7.89417
   H      -19.72189        -6.65005        -8.44603
   H      -20.02621        -6.10486        -5.44507
   H      -24.87273        -9.14781        -6.76141
   H      -21.58938        -5.49284        -8.79603
   H      -23.29480        -7.64254       -10.14902
   H      -22.53207        -6.17194       -10.95141
*
