# ORCA input file
# SCF done       -219.068739649013          0.000505940516
! CAM-B3LYP def2-SVP def2/J RIJCOSX Grid4 TightSCF
%maxcore 5000
%tddft
    Mode sTDDFT
    Ethresh 5.0
    maxcore 5000
end

%pal
  nprocs 6
  end
* xyz 0 1
   C       -3.82927         3.38440        -2.34552
   C       -4.08179         2.21911        -1.67261
   C       -4.77498         1.12400        -2.23091
   N       -5.33908         0.20699        -2.62855
   C       -3.63635         1.92370        -0.36565
   N       -3.27154         1.59842         0.67274
   C       -4.15516         3.64943        -3.74269
   C       -3.55973         4.88870        -4.11943
   C       -3.67782         5.39363        -5.38284
   C       -4.41931         4.67243        -6.34465
   C       -5.02648         3.43746        -5.97407
   C       -4.88110         2.93683        -4.65920
   C       -5.76927         2.72990        -6.94044
   C       -5.90602         3.21628        -8.21255
   C       -5.30690         4.43128        -8.57656
   C       -4.57891         5.14395        -7.66249
   C       -2.86346         5.46048        -2.96143
   O       -2.21787         6.49530        -2.93501
   C       -3.11709         4.54475        -1.83770
   C       -2.83718         4.80880        -0.52548
   C       -2.16588         5.91131         0.03250
   S       -1.35430         7.20425        -0.79608
   C       -0.84941         7.93202         0.70176
   C       -1.31655         7.20329         1.79935
   C       -2.04515         6.08115         1.42490
   O       -2.64731         5.19822         2.26007
   C       -2.62487         5.26356         3.60469
   O       -3.24830         4.46157         4.23551
   C       -1.82696         6.33356         4.34712
   O       -1.76309         6.31730         5.54348
   S       -1.00296         7.63907         3.46858
   C       -0.09988         9.12303         0.76692
   C        0.33184         9.79727        -0.33576
   C        1.05657        11.00518        -0.25101
   N        1.50323        11.71474        -1.33856
   C        1.29918        11.38193        -2.72791
   C       -0.10480        11.74928        -3.20122
   C        2.18470        12.89209        -0.96220
   O        2.69034        13.65869        -1.74967
   C        2.12468        12.87940         0.48550
   C        1.45006        11.71006         0.89242
   C        1.42387        11.70358         2.33764
   O        0.94311        10.92648         3.13903
   N        2.10704        12.87678         2.71213
   C        2.23931        13.20626         4.11121
   C        3.52166        12.63134         4.70964
   C        2.52791        13.59398         1.61488
   C        3.19794        14.83910         1.54455
   C        3.89207        15.48812         2.51693
   C        4.51406        16.75036         2.35264
   S        5.64058        17.31117         3.54989
   C        5.94127        18.79491         2.69447
   C        5.17309        18.83871         1.53228
   C        4.37793        17.70496         1.34015
   O        3.48916        17.52053         0.32777
   C        3.23483        18.39397        -0.65973
   O        2.34793        18.16298        -1.42903
   C        4.05134        19.67180        -0.83704
   O        3.89818        20.36823        -1.79782
   S        5.21936        20.18077         0.40298
   C        6.84578        19.77351         3.15269
   C        7.57888        19.65553         4.29343
   C        8.48387        20.65377         4.71204
   C        9.25710        20.57660         5.83678
   C       10.20900        21.56499         6.30994
   C       10.49657        22.77570         5.73308
   C       11.43740        23.69354         6.24650
   N       12.18768        24.48480         6.60558
   C        9.90919        23.29040         4.55861
   N        9.48063        23.78307         3.61352
   C       10.82027        21.04624         7.52900
   C       10.25641        19.77013         7.81521
   C        9.26371        19.42875         6.78416
   O        8.59616        18.41627         6.72929
   C       10.63814        19.03823         8.90261
   C       11.62220        19.55818         9.77232
   C       12.19199        20.83421         9.49399
   C       11.77587        21.56911         8.36014
   C       13.17379        21.34421        10.36772
   C       13.57480        20.62952        11.46359
   C       13.01315        19.37319        11.73644
   C       12.05752        18.84887        10.90884
   H       -3.21330         6.33281        -5.64421
   H       -5.35582         2.00130        -4.40965
   H       -6.22775         1.79421        -6.65637
   H       -6.47702         2.66658        -8.94552
   H       -5.42518         4.80010        -9.58433
   H       -4.11552         6.08033        -7.93672
   H       -3.18741         4.10562         0.22146
   H        0.12476         9.50450         1.75599
   H        0.10448         9.39845        -1.31462
   H        1.49574        10.31733        -2.88137
   H        2.03740        11.96319        -3.28761
   H       -0.86220        11.20928        -2.63762
   H       -0.21159        11.50327        -4.25383
   H       -0.27100        12.81622        -3.07529
   H        1.38090        12.75204         4.61578
   H        2.18570        14.29015         4.23202
   H        3.48581        11.54563         4.67155
   H        3.61547        12.93912         5.74734
   H        4.40062        12.96382         4.16132
   H        3.16240        15.27253         0.55435
   H        4.06047        15.03520         3.48194
   H        6.94248        20.65696         2.53288
   H        7.47639        18.76871         4.90382
   H        8.55974        21.52964         4.08076
   H       10.19404        18.07290         9.09560
   H       12.22803        22.53108         8.17910
   H       13.60317        22.31194        10.15379
   H       14.32741        21.02870        12.12681
   H       13.34161        18.82292        12.60540
   H       11.62155        17.88198        11.11349
*
