# ORCA input file
# SCF done       -208.777750052961          0.000806255499
! CAM-B3LYP def2-SVP def2/J RIJCOSX Grid4 TightSCF
%maxcore 5000
%tddft
    Mode sTDDFT
    Ethresh 5.0
    maxcore 5000
end

%pal
  nprocs 6
  end
* xyz 0 1
   C        2.67478         3.05828         4.33942
   C        2.60276         4.36492         4.74626
   C        3.60155         4.99621         5.52235
   N        4.36167         5.54497         6.18249
   C        1.50589         5.22087         4.53572
   N        0.64620         5.96851         4.39110
   C        3.75524         2.14337         4.69353
   C        3.29633         0.80342         4.53272
   C        4.08890        -0.26759         4.83221
   C        5.40177        -0.04201         5.30290
   C        5.87551         1.29552         5.43950
   C        5.03161         2.38528         5.12535
   C        7.19055         1.50651         5.90114
   C        7.99836         0.44893         6.21969
   C        7.53054        -0.86713         6.08741
   C        6.26030        -1.10752         5.63817
   C        1.92259         0.82240         4.01163
   O        1.18279        -0.10962         3.79701
   C        1.61746         2.26344         3.74179
   C        0.49133         2.55734         3.04608
   C        0.07891         3.77162         2.42987
   S       -1.59531         4.22274         2.55396
   C       -1.31791         5.71526         1.70014
   C        0.00060         5.78889         1.26385
   C        0.78191         4.70296         1.68387
   C        2.20232         4.51217         1.24714
   C        2.82315         5.81269         0.74504
   N        3.22934         6.66490         1.90864
   O        3.75113         6.08998         2.82863
   O        3.03635         7.84890         1.82993
   C        1.89194         6.59346        -0.17445
   N        1.67189         5.81587        -1.43977
   O        0.73220         6.13527        -2.11625
   O        2.46691         4.94817        -1.70059
   C        0.55139         6.92992         0.47162
   C       -2.36142         6.65695         1.58325
   S       -2.16064         8.25712         0.91088
   C       -3.80828         8.74970         1.22843
   C       -4.49911         7.68565         1.82830
   C       -3.67925         6.53586         2.01964
   N       -4.42927         5.56577         2.59931
   C       -5.70322         6.05806         2.77898
   C       -6.72124         5.28167         3.35187
   N       -7.55572         4.64634         3.81586
   C       -5.78298         7.35627         2.31620
   C       -4.19909        10.05240         0.89118
   C       -5.41133        10.60704         1.19626
   C       -5.79637        11.92562         0.88953
   C       -6.97893        12.52742         1.28777
   C       -7.00728        13.86559         0.83017
   C       -5.75138        14.06331         0.07336
   C       -5.03993        12.90975         0.12270
   C       -5.34824        15.21990        -0.60462
   N       -4.98452        16.14288        -1.18323
   C       -7.97889        14.81695         1.06700
   C       -7.98570        16.17776         0.65166
   C       -9.13850        16.79248         1.10968
   C       -9.88847        15.80699         1.87424
   C       -9.20957        14.62878         1.84920
   C       -9.62381        13.45573         2.48930
   N       -9.98129        12.50475         3.02611
   C       -9.41847        18.16561         0.90217
   C      -10.59198        18.85026         1.04552
   C      -10.72701        20.29636         0.97383
   C       -9.70904        21.21499         0.94713
   C       -9.90761        22.61060         0.88381
   N       -9.99587        23.75392         0.82717
   C       -8.32904        20.92659         1.00909
   N       -7.19081        20.79130         1.08210
   C      -12.14818        20.61937         1.02013
   C      -12.88370        19.40742         1.14333
   C      -11.95664        18.26377         1.15022
   O      -12.26722        17.09231         1.16450
   C      -14.24597        19.39175         1.22976
   C      -14.95084        20.61546         1.20287
   C      -14.22368        21.83403         1.07388
   C      -12.81316        21.81683         0.98009
   C      -14.93678        23.04994         1.04704
   C      -16.30145        23.06342         1.14589
   C      -17.01610        21.86288         1.27392
   C      -16.35522        20.66484         1.30134
   H        3.71846        -1.27475         4.71230
   H        5.41853         3.38738         5.22320
   H        7.54422         2.52160         6.00547
   H        9.00258         0.62080         6.57676
   H        8.18154        -1.68953         6.34320
   H        5.89483        -2.11860         5.53426
   H       -0.20517         1.72687         2.95330
   H        2.23352         3.77341         0.43953
   H        2.81532         4.12160         2.06052
   H        3.75690         5.57507         0.21823
   H        2.37418         7.52850        -0.48791
   H       -0.14874         7.21529        -0.31896
   H        0.67834         7.79871         1.12515
   H       -4.12533         4.64341         2.86317
   H       -6.66594         7.96158         2.33374
   H       -3.45526        10.64858         0.38065
   H       -6.13506        10.02009         1.74182
   H       -7.74823        12.06181         1.87148
   H       -4.08371        12.74225        -0.33658
   H       -7.22075        16.64579         0.06223
   H      -10.81493        15.98717         2.38163
   H       -8.55364        18.73361         0.57803
   H      -14.77807        18.45658         1.32312
   H      -12.29478        22.75672         0.87792
   H      -14.38223        23.97174         0.94942
   H      -16.83828        24.00001         1.12652
   H      -18.09273        21.89219         1.35078
   H      -16.89971        19.73705         1.39957
*
