# ORCA input file
# SCF done       -254.844417163841          0.011383264585
! CAM-B3LYP def2-SVP def2/J RIJCOSX Grid4 TightSCF
%maxcore 5000
%tddft
    Mode sTDDFT
    Ethresh 5.0
    maxcore 5000
end

%pal
  nprocs 6
  end
* xyz 0 1
   C       -2.77766        -1.87828        -5.18090
   C       -2.18939        -2.20488        -6.37040
   F       -1.51157        -1.28081        -7.06515
   C       -2.28660        -3.51394        -6.88240
   F       -1.70227        -3.80801        -8.05379
   C       -2.96854        -4.47883        -6.19633
   C       -3.58196        -4.17425        -4.96571
   C       -3.48683        -2.85115        -4.44771
   C       -4.09011        -2.52670        -3.21105
   C       -4.74985        -3.49916        -2.50698
   C       -4.83867        -4.81911        -3.03126
   C       -4.28531        -5.15468        -4.23156
   C       -5.60290        -5.65944        -2.08727
   O       -6.15166        -6.71616        -2.33973
   C       -5.79184        -4.81590        -0.87723
   C       -5.40250        -3.46569        -1.19891
   C       -5.53817        -2.35437        -0.40303
   C       -6.16125        -2.34695         0.86189
   N       -6.65104        -2.27943         1.90205
   C       -5.09812        -1.06401        -0.76241
   N       -4.76005         0.00920        -0.99834
   C       -6.23164        -5.29155         0.32706
   C       -6.18620        -6.63808         0.74212
   C       -5.33980        -7.69289         0.32848
   N       -4.19109        -7.65311        -0.45262
   O       -3.79949        -6.58451        -0.92763
   O       -3.57965        -8.69975        -0.62608
   C       -5.73134        -8.87984         1.00981
   C       -6.83176        -8.60464         1.77703
   C       -7.11769        -7.21458         1.68657
   C       -8.10423        -6.56297         2.45305
   C       -7.99217        -5.35597         3.14753
   C       -9.06584        -5.23166         4.02296
   C       -9.92473        -6.32900         3.86372
   N      -11.12504        -6.48106         4.56797
   O      -11.41798        -5.61511         5.37623
   O      -11.82373        -7.46253         4.34419
   C       -9.40197        -7.16563         2.83768
   C      -10.11702        -8.13296         2.15450
   C       -9.79694        -8.65000         0.90363
   C      -10.61292        -9.52224         0.19411
   C      -11.93470        -9.91878         0.49111
   C      -12.47607       -10.59707        -0.59359
   O      -13.72918       -11.05236        -0.52448
   C      -14.42616       -11.49880        -1.66651
   C      -11.47066       -10.71024        -1.62222
   C      -10.32406        -9.99999        -1.15130
   C       -9.14631        -9.75509        -1.85257
   C       -7.84927        -9.71546        -1.34628
   C       -6.97328        -9.49014        -2.41035
   O       -5.68590        -9.57703        -2.29634
   C       -4.86240        -9.39200        -3.43006
   C       -7.77165        -9.24925        -3.61852
   C       -9.05809        -9.44765        -3.30615
   C      -11.46047       -11.56694        -2.74365
   C      -10.32467       -12.02208        -3.35419
   C      -10.31716       -12.85549        -4.48794
   S      -11.78556       -13.54112        -5.12957
   C       -9.20769       -13.25481        -5.23856
   C       -7.82257       -12.83513        -4.95410
   O       -7.50626       -12.06271        -4.05918
   C       -6.86099       -13.44425        -5.85522
   C       -5.48645       -13.32561        -5.88180
   N       -5.00610       -14.07052        -6.90390
   C       -3.62346       -14.14309        -7.30838
   C       -3.32349       -13.12287        -8.40622
   C       -6.03392       -14.66246        -7.55500
   C       -7.21119       -14.30980        -6.93152
   C       -8.57412       -14.68069        -7.26253
   O       -8.88097       -15.37558        -8.21318
   C       -9.55502       -14.10668        -6.31393
   C      -10.92062       -14.35425        -6.40554
   C      -11.56045       -15.23964        -7.30563
   C      -12.86984       -15.29194        -7.66669
   C      -13.42941       -16.56225        -8.21548
   O      -12.80944       -17.51375        -8.62212
   C      -14.89427       -16.42302        -8.07562
   C      -15.86709       -17.35251        -8.30608
   C      -17.21704       -17.00560        -8.07458
   C      -17.53279       -15.69810        -7.60203
   C      -18.88120       -15.36156        -7.36698
   C      -19.86957       -16.27796        -7.59314
   C      -19.55611       -17.57048        -8.06142
   C      -18.25812       -17.92780        -8.29760
   F      -20.54473       -18.44845        -8.27190
   F      -21.14937       -15.95577        -7.36955
   C      -16.50443       -14.75456        -7.37736
   C      -15.20391       -15.11068        -7.61611
   C      -13.96057       -14.35327        -7.50780
   C      -13.85847       -12.98705        -7.51032
   C      -12.64226       -12.29381        -7.68458
   N      -11.68468       -11.68205        -7.85453
   C      -14.96309       -12.11909        -7.40158
   N      -15.82512       -11.37290        -7.27529
   H       -2.69330        -0.87157        -4.80241
   H       -3.03171        -5.47658        -6.60192
   H       -4.00176        -1.51671        -2.84544
   H       -4.36154        -6.15955        -4.61803
   H       -6.62899        -4.59119         1.04600
   H       -5.20835        -9.81338         0.92475
   H       -7.35298        -9.28877         2.42018
   H       -7.16182        -4.67679         3.11136
   H       -9.22415        -4.43382         4.72459
   H      -11.05940        -8.42413         2.60008
   H       -8.89968        -8.30577         0.40993
   H      -12.48292        -9.69115         1.38435
   H      -15.47446       -11.53107        -1.37094
   H      -14.11063       -12.50591        -1.95704
   H      -14.31071       -10.80928        -2.50639
   H       -7.54829        -9.98208        -0.35378
   H       -3.84490        -9.57026        -3.08298
   H       -4.95726        -8.36221        -3.78660
   H       -5.13301       -10.09290        -4.22473
   H       -7.37077        -8.95792        -4.56921
   H       -9.91464        -9.32273        -3.94030
   H      -12.40075       -11.94025        -3.12587
   H       -9.34832       -11.77536        -2.96443
   H       -4.83848       -12.77512        -5.22857
   H       -3.42002       -15.15214        -7.67488
   H       -2.99622       -13.95259        -6.43524
   H       -3.94445       -13.31220        -9.27750
   H       -2.28006       -13.18902        -8.70084
   H       -3.52223       -12.11566        -8.04952
   H       -5.88360       -15.30111        -8.40250
   H      -10.92628       -16.02335        -7.71296
   H      -15.61050       -18.33926        -8.66029
   H      -19.13908       -14.37587        -7.01209
   H      -18.03474       -18.92066        -8.65565
   H      -16.76909       -13.77511        -7.01163
*
