# ORCA input file
# SCF done       -211.602959762898          0.000846162414
! CAM-B3LYP def2-SVP def2/J RIJCOSX Grid4 TightSCF
%maxcore 5000
%tddft
    Mode sTDDFT
    Ethresh 5.0
    maxcore 5000
end

%pal
  nprocs 6
  end
* xyz 0 1
   C       -1.36977       -11.51728        16.48500
   C       -1.36349       -10.23339        16.95342
   F       -1.18786        -9.99394        18.25749
   C       -1.54061        -9.14628        16.07208
   F       -1.52901        -7.90060        16.55988
   C       -1.72282        -9.35900        14.73430
   C       -1.73467       -10.67073        14.22103
   C       -1.55287       -11.77055        15.11031
   C       -1.55104       -13.09483        14.61755
   C       -1.72112       -13.31455        13.27458
   C       -1.91056       -12.21114        12.39738
   C       -1.92168       -10.92036        12.84427
   C       -2.07167       -12.69371        11.01547
   O       -2.32001       -12.01879        10.04400
   C       -1.95220       -14.18190        11.09403
   C       -1.73888       -14.54379        12.48951
   C       -1.52555       -15.80222        12.98607
   C       -1.47855       -16.99435        12.23052
   N       -1.41538       -18.00535        11.69029
   C       -1.30441       -16.08538        14.35246
   N       -1.12527       -16.38515        15.44522
   C       -2.14708       -15.06341        10.07495
   C       -2.23089       -14.81203         8.67697
   C       -1.78142       -13.75632         7.92614
   C       -2.06107       -14.01090         6.53962
   C       -2.70515       -15.33785         6.49028
   C       -2.78768       -15.80840         7.75846
   C       -3.13169       -16.03126         5.35305
   N       -3.48172       -16.65270         4.45385
   C       -1.81685       -13.17015         5.49148
   C       -2.20043       -13.34594         4.11192
   C       -1.86874       -12.21708         3.42356
   C       -1.22032       -11.28399         4.33161
   C       -1.16901       -11.84673         5.56631
   C       -0.55424       -11.26181         6.68191
   N       -0.01323       -10.75274         7.55696
   C       -2.16784       -11.95451         2.02539
   C       -2.31720       -10.72410         1.50463
   N       -2.19742       -13.08849         1.24789
   N       -3.02389       -13.47700         0.48814
   C       -3.49258       -14.17472        -0.45270
   C       -4.61236       -15.04898        -0.25525
   N       -5.17587       -15.15222         0.99357
   O       -4.66031       -14.45411         1.87931
   O       -6.13421       -15.88811         1.16284
   C       -4.90693       -15.68063        -1.46930
   C       -4.01143       -15.24428        -2.42709
   C       -3.10014       -14.32161        -1.87885
   C       -2.02387       -13.67499        -2.47138
   C       -1.50948       -12.40020        -2.08057
   C       -0.65779       -11.95079        -3.04242
   C       -0.55892       -12.95296        -4.05815
   N        0.27475       -12.81361        -5.18192
   O        0.87617       -11.76011        -5.29940
   O        0.34380       -13.73459        -5.97866
   C       -1.35049       -14.04909        -3.71607
   C       -1.40422       -15.28946        -4.41828
   C       -1.54715       -16.52191        -3.85940
   C       -1.50953       -16.71280        -2.45331
   C       -2.11246       -17.62345        -1.64132
   C       -2.24585       -17.21991        -0.21124
   O       -1.67605       -16.28693         0.31940
   C       -3.31977       -18.05055         0.33967
   C       -3.89801       -17.99003         1.57600
   C       -5.01230       -18.81165         1.84825
   C       -5.50448       -19.68521         0.83651
   C       -6.63248       -20.48207         1.11453
   C       -7.23850       -20.40986         2.33787
   C       -6.74793       -19.54369         3.33599
   C       -5.65433       -18.76002         3.09936
   F       -7.36562       -19.50267         4.52512
   F       -8.31068       -21.16975         2.60009
   C       -4.86727       -19.74559        -0.42479
   C       -3.78428       -18.94388        -0.66966
   C       -2.94098       -18.79335        -1.85399
   C       -2.85798       -19.70018        -2.87552
   C       -1.89168       -19.66280        -3.90034
   N       -1.10890       -19.69651        -4.73891
   C       -3.67974       -20.84318        -2.98094
   N       -4.32654       -21.77949        -3.12798
   H       -1.23105       -12.33676        17.17286
   H       -1.85653        -8.51733        14.07298
   H       -1.41425       -13.90241        15.31801
   H       -2.06350       -10.10401        12.15260
   H       -2.26027       -16.10992        10.33320
   H       -1.29910       -12.87141         8.28704
   H       -3.19977       -16.75222         8.06640
   H       -2.72050       -14.19781         3.71821
   H       -0.82271       -10.32570         4.05458
   H       -2.19114        -9.84752         2.11293
   H       -2.54565       -10.56527         0.46521
   H       -5.71017       -16.37963        -1.60856
   H       -4.02730       -15.51610        -3.46507
   H       -1.82368       -11.85473        -1.21320
   H       -0.13091       -11.01661        -3.07358
   H       -1.27638       -15.22222        -5.49153
   H       -1.67576       -17.36930        -4.51443
   H       -1.00968       -15.92423        -1.89596
   H       -3.52432       -17.32449         2.33883
   H       -7.02233       -21.15270         0.36463
   H       -5.28260       -18.09238         3.86048
   H       -5.26477       -20.41275        -1.17302
*
