# ORCA input file
# SCF done       -239.620038876655          0.000838486412
! CAM-B3LYP def2-SVP def2/J RIJCOSX Grid4 TightSCF
%maxcore 5000
%tddft
    Mode sTDDFT
    Ethresh 5.0
    maxcore 5000
end

%pal
  nprocs 6
  end
* xyz 0 1
   C      -11.79846        -0.98268       -11.19803
   C      -12.98994        -1.15685       -11.84460
   F      -13.61666        -0.10889       -12.39667
   C      -13.57419        -2.43544       -11.93869
   F      -14.74452        -2.57751       -12.57734
   C      -12.95920        -3.52263       -11.38393
   C      -11.73192        -3.37526       -10.70925
   C      -11.13863        -2.08330       -10.61575
   C       -9.90290        -1.91217        -9.94980
   C       -9.28134        -2.99957        -9.39628
   C       -9.88519        -4.28378        -9.48684
   C      -11.07731        -4.48051       -10.12091
   C       -9.02516        -5.27822        -8.81828
   O       -9.30569        -6.44119        -8.61051
   C       -7.84429        -4.52825        -8.33695
   C       -8.01599        -3.13522        -8.68000
   C       -7.11548        -2.12137        -8.46135
   C       -5.86256        -2.27079        -7.83468
   N       -4.82690        -2.31504        -7.33820
   C       -7.32524        -0.78201        -8.84821
   N       -7.44126         0.32580        -9.12723
   C       -6.84275        -5.02828        -7.54203
   C       -6.43457        -6.36405        -7.37458
   C       -6.66879        -7.48264        -8.19701
   N       -7.16540        -7.53022        -9.50979
   O       -7.62679        -8.60237        -9.87803
   O       -7.06337        -6.55241       -10.22530
   C       -6.14985        -8.63990        -7.57090
   C       -5.62777        -8.28089        -6.35473
   C       -5.75472        -6.87147        -6.19239
   C       -5.28963        -6.13966        -5.08687
   C       -4.72969        -4.85791        -5.07002
   C       -4.28218        -4.58236        -3.78921
   C       -4.58532        -5.65677        -2.92989
   N       -4.19846        -5.61250        -1.58440
   O       -3.75906        -4.55380        -1.16658
   O       -4.28926        -6.61699        -0.88836
   C       -5.25191        -6.66071        -3.68773
   C       -5.96249        -7.80333        -3.36644
   C       -6.12066        -8.41186        -2.12487
   C       -6.72185        -9.64030        -1.88808
   C       -6.49377       -10.33103        -0.67217
   C       -6.93954       -11.63467        -0.78385
   O       -6.82271       -12.55212         0.20559
   C       -6.10744       -13.72911        -0.12644
   C       -7.54625       -11.81166        -2.06864
   C       -7.38912       -10.58134        -2.78806
   C       -7.86591       -10.37622        -4.08174
   C       -8.45855        -9.24549        -4.65717
   C       -8.86526        -9.57362        -5.94780
   O       -9.56816        -8.78654        -6.70879
   C      -10.03469        -9.23723        -7.97008
   C       -8.40048       -10.93803        -6.24484
   C       -7.84032       -11.42453        -5.13078
   C       -8.45360       -12.83065        -2.46536
   C       -8.97950       -13.79603        -1.67171
   C      -10.00689       -14.70052        -2.10683
   C      -10.91614       -15.26432        -1.24508
   S      -12.14667       -16.14178        -2.04707
   C      -11.45804       -15.78684        -3.57300
   C      -10.32513       -15.03599        -3.46846
   C       -9.45764       -14.75751        -4.62710
   O       -9.77274       -14.32617        -5.69909
   O       -8.18304       -15.13746        -4.30664
   C       -7.17756       -15.01366        -5.20785
   C       -5.92665       -15.39419        -4.89433
   C       -5.50901       -15.95509        -3.64729
   C       -6.19922       -16.66385        -2.71550
   C       -5.63989       -16.75079        -1.33103
   O       -4.51912       -16.46031        -0.98703
   C       -6.76852       -17.18128        -0.48200
   C       -6.83045       -17.28625         0.87847
   C       -8.04710       -17.67403         1.48346
   C       -9.17672       -17.95726         0.66146
   C      -10.39243       -18.33066         1.26894
   C      -10.48089       -18.42500         2.62965
   C       -9.36093       -18.15156         3.44244
   C       -8.16921       -17.78355         2.88261
   F       -9.47715       -18.25281         4.77067
   F      -11.63577       -18.77605         3.20488
   C       -9.07441       -17.86615        -0.74482
   C       -7.88846       -17.47815        -1.30866
   C       -7.49941       -17.30063        -2.70423
   C       -8.17486       -17.80981        -3.78058
   C       -7.66732       -17.81422        -5.09502
   N       -7.28566       -17.83599        -6.17647
   C       -9.44640       -18.41214        -3.69959
   N      -10.50307       -18.86024        -3.69589
   H      -11.36343         0.00267       -11.13711
   H      -13.41939        -4.49486       -11.46599
   H       -9.48118        -0.92170        -9.89528
   H      -11.51172        -5.46669       -10.18282
   H       -6.29610        -4.30914        -6.95111
   H       -6.13852        -9.61593        -8.01867
   H       -5.08330        -8.93210        -5.69722
   H       -4.55240        -4.22121        -5.91587
   H       -3.76220        -3.69586        -3.47595
   H       -6.43315        -8.29277        -4.20485
   H       -5.65513        -7.94888        -1.26446
   H       -5.98773        -9.91881         0.18005
   H       -5.03694       -13.51605        -0.19908
   H       -6.44592       -14.16427        -1.07036
   H       -6.27790       -14.43195         0.68626
   H       -8.69770        -8.32978        -4.15418
   H       -9.21046        -9.30686        -8.68798
   H      -10.72402        -8.47050        -8.31432
   H      -10.54089       -10.20066        -7.88603
   H       -8.49156       -11.42154        -7.19805
   H       -7.31428       -12.35417        -5.02038
   H       -8.84933       -12.73236        -3.46795
   H       -8.73591       -13.83677        -0.62006
   H      -10.93805       -15.16361        -0.17791
   H      -11.89217       -16.18718        -4.46763
   H       -7.44429       -14.56953        -6.15898
   H       -5.15051       -15.18497        -5.61440
   H       -4.48613       -15.72639        -3.35983
   H       -5.96279       -17.07730         1.48594
   H      -11.25704       -18.54766         0.66101
   H       -7.32289       -17.57766         3.51905
   H       -9.94067       -18.10362        -1.34041
*
