# ORCA input file
# SCF done       -219.224736805859          0.000446084059
! CAM-B3LYP def2-SVP def2/J RIJCOSX Grid4 TightSCF
%maxcore 5000
%tddft
    Mode sTDDFT
    Ethresh 5.0
    maxcore 5000
end

%pal
  nprocs 6
  end
* xyz 0 1
   C       -2.73669         1.57580         9.01671
   C       -2.13504         1.78827        10.22513
   F       -2.09398         3.01973        10.74962
   C       -1.55182         0.71873        10.93463
   F       -0.96933         0.95723        12.11702
   C       -1.57833        -0.54918        10.42527
   C       -2.19175        -0.80047         9.18253
   C       -2.78293         0.27960         8.46459
   C       -3.40983         0.05072         7.21867
   C       -3.44975        -1.22077         6.70841
   C       -2.85132        -2.29030         7.42913
   C       -2.23393        -2.10020         8.63183
   C       -3.00742        -3.54731         6.67175
   O       -2.54499        -4.62457         6.97347
   C       -3.75934        -3.18275         5.44094
   C       -4.03660        -1.75727         5.48400
   C       -4.78648        -1.04098         4.58773
   C       -5.44814        -1.56944         3.45809
   N       -6.03879        -1.91839         2.53751
   C       -5.03143         0.34492         4.69468
   N       -5.26236         1.46890         4.72138
   C       -4.01983        -4.00651         4.38186
   C       -3.93972        -5.41812         4.30445
   C       -3.90469        -6.11239         3.10861
   C       -3.84749        -7.50999         3.37830
   C       -3.91085        -7.64383         4.84170
   C       -3.97339        -6.39906         5.38318
   C       -4.01781        -8.83613         5.57092
   N       -4.15696        -9.78822         6.19735
   C       -3.77405        -8.54107         2.46616
   C       -3.62947        -9.92435         2.74410
   C       -3.70872       -10.63966         1.56218
   C       -3.88556        -9.68256         0.47737
   C       -3.89256        -8.42904         1.00032
   C       -4.00594        -7.25293         0.24978
   N       -4.09026        -6.31008        -0.40047
   C       -3.60033       -12.05134         1.49988
   N       -4.03681       -12.88939         0.50353
   C       -4.81399       -12.55793        -0.66896
   C       -6.18865       -12.00181        -0.31368
   C       -3.78121       -14.24118         0.81012
   O       -4.10431       -15.16416         0.09154
   C       -3.09514       -14.20056         2.08243
   C       -3.01082       -12.85447         2.48535
   C       -2.24964       -12.80399         3.72254
   O       -1.88316       -11.88530         4.41709
   N       -1.94534       -14.15590         3.99280
   C       -1.22844       -14.52779         5.19045
   C       -2.17601       -14.97828         6.29872
   C       -2.44305       -14.99699         3.03519
   C       -2.28005       -16.39997         3.05094
   C       -2.77211       -17.21543         2.07553
   C       -2.57335       -18.61474         2.11493
   O       -1.99150       -19.19237         3.17996
   C       -1.85626       -20.51705         2.93419
   C       -2.37662       -20.81384         1.68248
   C       -2.85044       -19.60176         1.15411
   C       -3.46409       -19.41442        -0.09443
   N       -3.96535       -19.29757        -1.11815
   C       -1.21283       -21.33122         3.89892
   C       -0.85706       -20.84032         5.11783
   C       -0.10700       -21.56869         6.05917
   C        0.34862       -21.16322         7.28180
   C        0.91529       -22.20493         8.18503
   O        1.20769       -23.33725         7.87668
   C        0.99350       -21.57748         9.51565
   C        1.36218       -22.13664        10.70495
   C        1.32692       -21.34648        11.87521
   C        0.89736       -19.99068        11.78633
   C        0.85437       -19.20706        12.95713
   C        1.22412       -19.74382        14.15838
   C        1.65067       -21.08488        14.24455
   C        1.70130       -21.87094        13.12742
   F        2.00613       -21.58386        15.43488
   F        1.18449       -18.99834        15.26922
   C        0.52513       -19.43993        10.53876
   C        0.58199       -20.21867         9.41280
   C        0.29862       -19.91219         8.00784
   C        0.16920       -18.63369         7.52702
   C        0.10767       -18.19887         6.18887
   N        0.07878       -17.69457         5.15587
   C        0.14064       -17.47921         8.34181
   N        0.07469       -16.48414         8.91074
   H       -3.17926         2.40528         8.48755
   H       -1.12746        -1.35708        10.97999
   H       -3.84189         0.89050         6.69933
   H       -1.78809        -2.93170         9.15625
   H       -4.32499        -3.53884         3.45261
   H       -3.87516        -5.67261         2.13007
   H       -4.06335        -6.17181         6.42664
   H       -3.48291       -10.34071         3.72045
   H       -3.94685        -9.91477        -0.56826
   H       -4.92660       -13.49952        -1.21518
   H       -4.25748       -11.86253        -1.30228
   H       -6.73737       -12.72061         0.29021
   H       -6.75100       -11.81293        -1.22374
   H       -6.10787       -11.07099         0.24366
   H       -0.69277       -13.63166         5.51426
   H       -0.50481       -15.31230         4.95693
   H       -2.87403       -14.18027         6.53929
   H       -1.60339       -15.21844         7.19039
   H       -2.74023       -15.85793         5.99481
   H       -1.71766       -16.83814         3.86420
   H       -3.30968       -16.81925         1.22431
   H       -2.41396       -21.77665         1.21460
   H       -0.98200       -22.34669         3.61244
   H       -1.16542       -19.83640         5.36071
   H        0.12143       -22.60204         5.81598
   H        1.67574       -23.16835        10.75125
   H        0.53351       -18.17816        12.90874
   H        2.02956       -22.89520        13.20985
   H        0.19588       -18.41404        10.51217
*
