# ORCA input file
# SCF done       -223.024169130719          0.000826205512
! CAM-B3LYP def2-SVP def2/J RIJCOSX Grid4 TightSCF
%maxcore 5000
%tddft
    Mode sTDDFT
    Ethresh 5.0
    maxcore 5000
end

%pal
  nprocs 6
  end
* xyz 0 1
   C      -13.75279        -2.89974         2.49092
   C      -13.78225        -2.72161         1.13611
   F      -14.18842        -1.55683         0.62028
   C      -13.38998        -3.75947         0.26547
   F      -13.43398        -3.55630        -1.05562
   C      -12.97744        -4.96349         0.76240
   C      -12.93501        -5.17650         2.15342
   C      -13.32632        -4.12716         3.03569
   C      -13.27347        -4.31376         4.43520
   C      -12.82474        -5.50621         4.94090
   C      -12.43112        -6.54822         4.05170
   C      -12.49595        -6.40219         2.69401
   C      -11.90752        -7.67546         4.82650
   O      -11.54854        -8.76140         4.41277
   C      -11.86764        -7.20438         6.23554
   C      -12.58436        -5.93720         6.31282
   C      -12.93288        -5.26789         7.44849
   C      -12.62170        -5.69964         8.75805
   N      -12.36337        -5.97359         9.84121
   C      -13.64821        -4.04946         7.45296
   N      -14.23000        -3.06277         7.50973
   C      -11.13776        -7.82158         7.19068
   C      -10.25563        -8.93958         6.86269
   C      -10.55181       -10.20570         7.28265
   N      -11.73261       -10.43850         8.02315
   O      -12.43776        -9.46631         8.25481
   O      -11.98267       -11.57443         8.36467
   C       -9.71085       -11.34432         6.82513
   C       -8.49461       -10.09687         5.61919
   C       -9.16136        -8.80496         5.92350
   C       -8.90117        -7.63621         5.24572
   C       -9.25368        -6.31425         5.69850
   C       -9.29579        -5.48180         4.63555
   C       -8.97727        -6.24338         3.45590
   N       -9.02614        -5.63492         2.18996
   O       -8.33041        -6.06078         1.28238
   O       -9.78331        -4.68380         2.07209
   C       -8.62565        -7.54236         3.80022
   C       -8.37166        -8.61342         2.87056
   C       -9.12733        -8.76806         1.76731
   C       -9.00808        -9.63018         0.60646
   C      -10.20164       -10.11568         0.04512
   C      -11.50688       -10.07137         0.78286
   C      -10.18683       -10.68105        -1.21759
   C       -9.04185       -10.69426        -1.99846
   C       -9.06149       -11.16085        -3.42784
   C      -10.41005       -11.63942        -3.95169
   C       -7.83565       -10.25001        -1.43513
   C       -6.61749       -10.14877        -2.30662
   C       -7.80195        -9.82292        -0.10839
   C       -6.50399        -9.51935         0.52100
   C       -6.16196        -8.28590         0.98201
   S       -4.60930        -8.24689         1.72081
   C       -4.37430        -9.89650         1.38316
   C       -5.44150       -10.46861         0.73101
   C       -5.27587       -11.82558         0.20404
   O       -4.22408       -12.41612         0.19443
   O       -6.40156       -12.37644        -0.33637
   C       -6.22572       -13.31024        -1.32213
   C       -7.24136       -14.03987        -1.79062
   C       -8.54494       -14.00046        -1.16343
   C       -8.70845       -14.13422         0.16660
   C       -9.86826       -13.54101         0.88663
   O      -10.95862       -13.27938         0.44188
   C       -9.33383       -13.25991         2.23670
   C       -9.83955       -12.44526         3.22451
   C       -9.10594       -12.23083         4.39116
   C       -7.89263       -12.91913         4.59472
   C       -7.08898       -12.81576         5.79250
   C       -7.23109       -11.95820         6.80644
   C       -8.24269       -10.87386         6.93912
   C       -9.59058       -11.15169         5.28345
   F       -7.95421       -10.10676         8.03470
   F       -6.37686       -12.03057         7.83571
   C       -7.39198       -13.75170         3.58468
   C       -8.08094       -13.88297         2.39749
   C       -7.72869       -14.55844         1.15947
   C       -6.77941       -15.52389         1.00072
   C       -6.59593       -16.24181        -0.20153
   N       -6.43983       -16.87962        -1.14173
   C       -5.92578       -15.95633         2.03916
   N       -5.21675       -16.32786         2.86017
   H      -14.05366        -2.09342         3.14145
   H      -12.67382        -5.74372         0.08230
   H      -13.56944        -3.49908         5.07654
   H      -12.20002        -7.20778         2.03891
   H      -11.10238        -7.44519         8.20468
   H      -10.00677       -12.30381         7.24261
   H       -7.64264       -10.00442         4.95476
   H       -9.36425        -6.04741         6.73163
   H       -9.50227        -4.42879         4.62224
   H       -7.56346        -9.29866         3.07883
   H       -9.99758        -8.12402         1.70254
   H      -11.38574        -9.82510         1.83425
   H      -11.98648       -11.04597         0.70743
   H      -12.17459        -9.34320         0.32030
   H      -11.11333       -11.07214        -1.60458
   H       -8.32831       -11.96551        -3.54334
   H       -8.71816       -10.33410        -4.05776
   H      -10.78666       -12.48124        -3.37521
   H      -10.30251       -11.96092        -4.98519
   H      -11.14509       -10.83887        -3.92271
   H       -6.37818       -11.10016        -2.77972
   H       -5.74991        -9.80424        -1.75234
   H       -6.81096        -9.42866        -3.10253
   H       -6.74518        -7.38889         0.91996
   H       -3.46108       -10.39163         1.64859
   H       -5.22841       -13.34937        -1.74384
   H       -7.10009       -14.63756        -2.67751
   H       -9.40904       -13.76161        -1.76963
   H      -10.78438       -11.94605         3.07670
   H       -6.27110       -13.51882         5.87067
   H      -10.48411       -10.70527         4.84576
   H       -6.44357       -14.24335         3.73183
*
