# ORCA input file
# SCF done       -205.665321579731          0.000736347999
! CAM-B3LYP def2-SVP def2/J RIJCOSX Grid4 TightSCF
%maxcore 5000
%tddft
    Mode sTDDFT
    Ethresh 5.0
    maxcore 5000
end

%pal
  nprocs 6
  end
* xyz 0 1
   C      -12.55027         2.83760        -5.39245
   C      -12.38348         4.03771        -4.76023
   F      -13.15129         5.08492        -5.08944
   C      -11.40594         4.19004        -3.75665
   F      -11.26635         5.37777        -3.15168
   C      -10.60764         3.13971        -3.39961
   C      -10.75461         1.89039        -4.03293
   C      -11.74251         1.73518        -5.04837
   C      -11.90433         0.49215        -5.70242
   C      -11.09876        -0.55988        -5.35512
   C      -10.11726        -0.39629        -4.33871
   C       -9.94217         0.78850        -3.68418
   C       -9.36946        -1.65573        -4.16416
   O       -8.51629        -1.87514        -3.33355
   C       -9.97321        -2.61120        -5.13012
   C      -11.02128        -1.92839        -5.85552
   C      -11.75405        -2.44233        -6.89648
   C      -12.73917        -1.71990        -7.60099
   N      -13.55950        -1.18824        -8.20258
   C      -11.61925        -3.74917        -7.40762
   N      -11.56114        -4.79829        -7.87240
   C       -9.72607        -3.95697        -5.17570
   C       -8.60641        -4.64461        -4.66213
   C       -7.33142        -4.17141        -4.35728
   N       -6.71341        -2.96497        -4.77013
   O       -5.69946        -2.63742        -4.18989
   O       -7.18603        -2.37020        -5.72092
   C       -6.59311        -5.18986        -3.68345
   C       -7.39782        -6.27618        -3.52001
   C       -8.65428        -6.02721        -4.17229
   C       -9.64921        -6.97256        -4.36345
   C      -10.51623        -7.12807        -5.48251
   C      -11.13378        -8.34158        -5.38632
   C      -10.74290        -8.98848        -4.17046
   N      -11.29542       -10.22946        -3.81618
   O      -10.81538       -10.85624        -2.88108
   O      -12.23349       -10.63194        -4.48124
   C       -9.84869        -8.15596        -3.48541
   C       -9.35776        -8.11574        -2.17181
   C       -9.30613        -9.10533        -1.22047
   C       -8.72115        -8.85071         0.03109
   N       -8.57163        -9.78765         1.02211
   C       -9.08437       -11.13866         1.00118
   C      -10.59000       -11.17822         1.24390
   C       -7.87418        -9.28299         2.13632
   O       -7.61684        -9.92742         3.12747
   C       -7.58254        -7.90820         1.77102
   C       -8.11814        -7.66385         0.49590
   C       -7.82222        -6.28602         0.15954
   O       -8.12313        -5.59778        -0.79434
   N       -7.06775        -5.80495         1.25111
   C       -6.65786        -4.41998         1.27910
   C       -5.36076        -4.20215         0.50367
   C       -6.91669        -6.75890         2.21712
   C       -6.23926        -6.66388         3.46359
   C       -5.23682        -5.82809         3.80252
   C       -4.62641        -5.82001         5.11090
   C       -3.28004        -5.65926         5.30363
   S       -2.81961        -5.78415         6.94755
   C       -4.44468        -6.01638         7.42142
   C       -5.30773        -6.01398         6.36108
   C       -6.76932        -6.01292         6.52527
   O       -7.56534        -5.59311         5.72425
   O       -7.11707        -6.50297         7.74039
   C       -8.43994        -6.51316         8.07168
   C       -8.84492        -6.96821         9.25995
   C      -10.22259        -6.98783         9.65955
   O      -11.20565        -6.55196         8.84013
   C      -12.38105        -6.67925         9.47506
   C      -12.18391        -7.20029        10.72135
   C      -10.78885        -7.40254        10.84653
   F      -10.13649        -7.89330        11.89910
   F      -13.11713        -7.46180        11.63176
   H      -13.30201         2.73868        -6.15990
   H       -9.86311         3.27269        -2.63045
   H      -12.66365         0.40521        -6.46270
   H       -9.18750         0.88566        -2.91871
   H      -10.49114        -4.58072        -5.61324
   H       -5.56688        -5.08183        -3.38722
   H       -7.10259        -7.22142        -3.10744
   H      -10.57953        -6.47903        -6.33488
   H      -11.80856        -8.78094        -6.09709
   H       -8.96661        -7.14900        -1.88596
   H       -9.67456       -10.09588        -1.43602
   H       -8.56430       -11.66979         1.80296
   H       -8.83929       -11.60729         0.04474
   H      -10.83032       -10.70476         2.19298
   H      -10.92511       -12.21067         1.27505
   H      -11.12570       -10.66583         0.44888
   H       -6.57125        -4.10186         2.31970
   H       -7.45280        -3.84549         0.79393
   H       -4.56451        -4.84758         0.86980
   H       -5.04753        -3.16625         0.59498
   H       -5.52524        -4.41791        -0.54877
   H       -6.56044        -7.41537         4.17271
   H       -4.77838        -5.17658         3.07337
   H       -2.53064        -5.51386         4.55060
   H       -4.69439        -6.11589         8.45895
   H       -9.11792        -6.13004         7.31969
   H       -8.13692        -7.34373         9.98250
   H      -13.27100        -6.37661         8.96217
*
