# ORCA input file
# SCF done       -217.027150868971          0.000498749447
! CAM-B3LYP def2-SVP def2/J RIJCOSX Grid4 TightSCF
%maxcore 5000
%tddft
    Mode sTDDFT
    Ethresh 5.0
    maxcore 5000
end

%pal
  nprocs 6
  end
* xyz 0 1
   C       -0.86032         6.73199         3.07540
   C       -1.52644         6.91846         4.22596
   C       -2.92411         6.52093         4.01239
   C       -3.93390         6.58855         4.97910
   N       -4.76334         6.62337         5.77237
   C       -3.06448         6.07063         2.73619
   C       -1.77318         6.16077         2.08485
   C       -1.40609         5.79541         0.81565
   C       -2.17539         5.05426        -0.21426
   C       -1.42258         5.06281        -1.36670
   C       -0.18795         5.74963        -1.10954
   C       -0.16237         6.16090         0.20124
   C        0.82550         5.94927        -2.06027
   N        1.65408         6.10947        -2.83704
   C       -3.39809         4.38954         0.01603
   C       -4.16406         3.77130        -0.93062
   C       -5.40348         3.15147        -0.64553
   C       -6.08349         2.43357        -1.67421
   C       -7.36069         1.79810        -1.47208
   N       -7.98994         1.22313        -2.51157
   C       -7.40282         1.19854        -3.68443
   C       -6.10385         1.76706        -3.86673
   N       -5.49491         2.37283        -2.87484
   C       -5.46207         1.69277        -5.12858
   N       -4.96702         1.61634        -6.15835
   C       -8.07569         0.59012        -4.77470
   N       -8.59263         0.09417        -5.66789
   C       -8.01460         1.85269        -0.22225
   C       -7.33689         2.54687         0.80425
   C       -6.06762         3.19760         0.60503
   N       -5.65915         3.80436         1.72396
   S       -6.73701         3.55739         2.88968
   N       -7.76128         2.65504         2.06337
   C       -9.34154         1.40368         0.06027
   N       -9.95139         0.24163        -0.30403
   C       -9.35061        -0.90369        -0.94662
   C       -8.27152        -1.53763        -0.07518
   C      -11.25966         0.15909         0.22224
   O      -11.98176        -0.80452         0.06245
   C      -11.45183         1.41086         0.92413
   C      -10.26017         2.14368         0.81939
   C      -10.47030         3.44975         1.42619
   O       -9.76187         4.42762         1.51791
   N      -11.78788         3.38994         1.90820
   C      -12.36580         4.49049         2.64587
   C      -12.29458         4.26111         4.15258
   C      -12.39230         2.18901         1.63528
   C      -13.68953         1.85807         2.04978
   C      -14.21898         0.61208         1.81270
   C      -15.47340         0.10630         2.18634
   C      -16.69270         0.70239         2.56845
   N      -17.01143         2.02888         2.90173
   O      -18.19286         2.32876         2.91019
   O      -16.11795         2.81479         3.18534
   C      -17.71598        -0.28762         2.54901
   C      -17.17982        -1.48636         2.16640
   C      -15.78364        -1.31603         1.96209
   C      -14.84445        -2.32600         1.77194
   C      -13.52615        -2.34622         2.29064
   C      -12.99155        -3.59952         2.11651
   C      -13.92803        -4.40975         1.42748
   N      -13.66890        -5.74159         1.07603
   O      -12.56296        -6.18453         1.33369
   O      -14.55603        -6.39824         0.54393
   C      -15.08261        -3.64755         1.15931
   C      -16.13703        -4.04262         0.33715
   C      -17.08529        -3.23142        -0.24896
   C      -18.17932        -3.69888        -0.98888
   C      -18.87186        -2.95563        -1.93362
   C      -19.74220        -3.82600        -2.64710
   C      -20.61183        -3.42767        -3.67502
   N      -21.32009        -3.10077        -4.51579
   C      -19.59561        -5.11760        -2.16750
   C      -18.68419        -5.08864        -1.07412
   C      -18.47881        -6.10986        -0.17565
   C      -18.71001        -7.55102        -0.40483
   C      -18.50616        -8.18865         0.77562
   C      -18.17940        -7.19925         1.79359
   C      -18.13072        -5.96340         1.21330
   C      -17.96634        -7.49076         3.14598
   N      -17.79705        -7.72808         4.25655
   C      -18.94406        -8.15736        -1.69566
   C      -19.52388        -9.34167        -1.87147
   H        0.18266         6.91331         2.90591
   H       -1.14843         7.29412         5.15803
   H       -3.99067         5.76888         2.29019
   H       -1.67078         4.60716        -2.30648
   H        0.62704         6.71870         0.66618
   H       -3.75154         4.34141         1.03176
   H       -3.84841         3.72865        -1.96276
   H       -8.93892        -0.59841        -1.91123
   H      -10.16533        -1.61339        -1.11269
   H       -7.45608        -0.83934         0.10417
   H       -7.87256        -2.41716        -0.57226
   H       -8.68649        -1.83958         0.88380
   H      -13.40046         4.63802         2.32861
   H      -11.78033         5.37440         2.37883
   H      -12.87479         3.38809         4.44039
   H      -12.69534         5.12752         4.67015
   H      -11.26206         4.11619         4.46169
   H      -14.25760         2.59144         2.59977
   H      -13.59776        -0.09085         1.27326
   H      -18.73642        -0.08854         2.81733
   H      -17.69835        -2.42479         2.13865
   H      -13.07148        -1.55062         2.84777
   H      -12.03051        -3.94552         2.44762
   H      -16.14260        -5.09525         0.07919
   H      -16.94085        -2.15795        -0.23599
   H      -18.74102        -1.90995        -2.14111
   H      -20.17857        -5.96497        -2.47377
   H      -18.53847        -9.24521         0.96041
   H      -17.98372        -5.03243         1.72516
   H      -18.59419        -7.59701        -2.55248
   H      -19.89849        -9.91956        -1.04387
   H      -19.65398        -9.76495        -2.85196
*
