# ORCA input file
# SCF done       -159.004856866201          0.000826028292
! CAM-B3LYP def2-SVP def2/J RIJCOSX Grid4 TightSCF
%maxcore 5000
%tddft
    Mode sTDDFT
    Ethresh 5.0
    maxcore 5000
end

%pal
  nprocs 6
  end
* xyz 0 1
   C       -7.98616         1.58514        -5.64879
   N       -7.66420         2.77649        -6.21439
   C       -7.74800         3.09583        -7.61754
   C       -6.55889         2.53045        -8.39036
   C       -7.13531         3.67860        -5.25649
   O       -6.77726         4.80696        -5.52368
   C       -7.17256         2.92730        -4.02593
   C       -7.70754         1.63408        -4.30968
   C       -7.74662         0.89784        -3.06400
   O       -8.12754        -0.21527        -2.78271
   N       -7.21894         1.79839        -2.10751
   C       -7.10746         1.37885        -0.73213
   C       -5.72010         0.82134        -0.41842
   C       -6.86952         3.00461        -2.67387
   C       -6.31370         4.16999        -2.07982
   C       -5.81647         4.36754        -0.83563
   C       -5.28298         5.60869        -0.39622
   S       -5.29605         7.04784        -1.37821
   C       -4.50844         7.97806        -0.14038
   C       -4.25424         7.18130         0.98097
   C       -4.69629         5.85813         0.82713
   C       -3.63153         7.61234         2.16387
   N       -3.12895         7.91277         3.15116
   C       -4.23465         9.34599        -0.38142
   C       -3.58227        10.18566         0.46152
   C       -3.33351        11.55212         0.18831
   S       -3.90769        12.34854        -1.25402
   C       -3.19053        13.85994        -0.77665
   C       -2.53851        13.71921         0.45539
   C       -2.62744        12.42961         0.98982
   C       -1.87556        14.78382         1.09214
   N       -1.33460        15.64465         1.62181
   C       -3.27913        15.03578        -1.54790
   C       -4.00025        15.13860        -2.69917
   C       -4.10289        16.30570        -3.48931
   C       -3.45159        17.51752        -3.35307
   C       -3.88381        18.39892        -4.37740
   C       -4.86960        17.64587        -5.18181
   C       -4.97803        16.40253        -4.65172
   C       -5.54584        18.09361        -6.32282
   N       -6.10981        18.41480        -7.27025
   C       -3.46958        19.69433        -4.60475
   C       -3.96656        20.61323        -5.56932
   C       -3.25628        21.79425        -5.47967
   C       -2.26125        21.63678        -4.43023
   C       -2.38945        20.39759        -3.88793
   C       -1.59416        19.88979        -2.85524
   N       -0.91829        19.50252        -2.01075
   C       -3.43892        22.97028        -6.25529
   C       -4.46804        23.25098        -7.12482
   C       -4.26026        24.54331        -7.70156
   C       -2.99336        25.04356        -7.12541
   C       -2.52839        24.11011        -6.25880
   C       -2.36246        26.26389        -7.39308
   N       -1.81057        27.25422        -7.57799
   C       -5.06322        25.20088        -8.59138
   C       -4.82039        26.48426        -9.21790
   C       -5.85157        26.76354       -10.04627
   C       -6.81434        25.68669        -9.98425
   C       -6.35772        24.73962        -9.11813
   C       -7.03775        23.56823        -8.77178
   N       -7.63214        22.62358        -8.49885
   H       -8.39846         0.78619        -6.23734
   H       -7.75352         4.18669        -7.69037
   H       -8.68658         2.70247        -8.01802
   H       -5.63172         2.94612        -8.00337
   H       -6.64441         2.78918        -9.44182
   H       -6.52095         1.44706        -8.29800
   H       -7.84718         0.58303        -0.59959
   H       -7.36982         2.21095        -0.07466
   H       -5.54404        -0.07102        -1.01363
   H       -5.65678         0.55429         0.63301
   H       -4.94077         1.54493        -0.64857
   H       -6.27472         5.00053        -2.77655
   H       -5.77400         3.57811        -0.10142
   H       -4.58363         5.10995         1.59225
   H       -4.58292         9.72909        -1.33321
   H       -3.20784         9.82486         1.40879
   H       -2.18993        12.14213         1.92941
   H       -2.74143        15.89332        -1.16515
   H       -4.55385        14.27144        -3.04072
   H       -2.73521        17.77145        -2.59757
   H       -5.60370        15.60623        -5.01136
   H       -4.76705        20.41025        -6.25280
   H       -1.55407        22.38552        -4.12577
   H       -5.30440        22.61692        -7.34281
   H       -1.62625        24.18330        -5.68027
   H       -3.95004        27.08547        -9.04464
   H       -5.96577        27.63668       -10.66129
   H       -7.73752        25.65218       -10.53320
*
