# ORCA input file
# SCF done       -203.613744780748          0.000721937371
! CAM-B3LYP def2-SVP def2/J RIJCOSX Grid4 TightSCF
%maxcore 5000
%tddft
    Mode sTDDFT
    Ethresh 5.0
    maxcore 5000
end

%pal
  nprocs 6
  end
* xyz 0 1
   C       -3.77546         0.15373         3.00204
   C       -2.57831        -0.48883         2.79242
   C       -2.12707        -1.58474         3.55403
   N       -1.70275        -2.47707         4.13977
   C       -1.64428        -0.16857         1.78723
   N       -0.84240         0.01171         0.98379
   C       -4.78729        -0.24964         3.97720
   C       -5.90144         0.61695         3.84936
   C       -7.04909         0.46303         4.58815
   C       -7.09904        -0.60192         5.49504
   C       -5.97300        -1.44418         5.63626
   C       -4.81032        -1.28540         4.88884
   S       -6.25034        -2.68886         6.81548
   C       -7.86068        -2.07952         7.08173
   C       -8.17552        -0.99690         6.33427
  Br       -8.98346        -2.94632         8.30103
   C       -5.60226         1.62463         2.81742
   O       -6.30225         2.59874         2.54168
   C       -4.30227         1.27326         2.26070
   C       -3.61564         1.98332         1.28143
   C       -4.12889         2.88511         0.36311
   S       -3.03601         4.06229        -0.33954
   C       -4.32811         4.96070        -1.07224
   C       -5.55471         4.24276        -0.95746
   C       -5.43587         3.07864        -0.15238
   C       -6.53173         2.22379        -0.00517
   C       -7.74676         2.57653        -0.54553
   S       -9.19304         1.57822        -0.28588
   C       -7.87358         3.72488        -1.35823
   O       -9.03929         4.05748        -1.95099
   C       -6.76925         4.51927        -1.59315
   C       -4.11327         6.25564        -1.54890
   C       -5.14701         7.16933        -1.58920
   C       -5.15290         8.50279        -1.96418
   C       -6.29765         9.26256        -1.72879
   C       -6.56358        10.62599        -1.92548
   C       -7.79554        11.03804        -1.46376
   C       -8.54976        10.01157        -0.88601
   S       -7.68640         8.50077        -0.98453
   C       -9.75226         9.99093        -0.17530
   C      -10.59487        11.00138         0.30086
   C      -11.55865        10.54316         1.16851
   C      -11.50341         9.16059         1.43227
   S      -10.26969         8.43996         0.43419
   C      -12.32899         8.46583         2.30901
   C      -12.28364         7.16348         2.79467
   S      -13.75355         6.59596         3.55201
   C      -13.11092         5.01879         3.90280
   C      -11.79165         4.90938         3.39670
   C      -11.30156         6.12904         2.84369
   C       -9.94946         6.20365         2.50236
   C       -9.13853         5.09150         2.54417
   S       -7.45072         5.18746         2.02848
   C       -9.65847         3.84187         2.96798
   O       -8.94011         2.71145         2.98104
   C      -10.97096         3.77704         3.39601
   C      -13.88548         4.18385         4.71406
   C      -13.45387         3.10037         5.43806
   C      -14.28456         2.43964         6.34870
   C      -13.91695         1.53951         7.32078
   C      -12.63518         1.15538         7.85002
   C      -11.45733         1.86994         7.80688
   C      -10.22739         1.38959         8.29514
   N       -9.18022         1.03687         8.61301
   C      -11.31251         3.19597         7.35306
   N      -11.11213         4.28819         7.05659
   C      -12.83327        -0.06438         8.63361
   C      -14.22267        -0.33503         8.71377
   C      -14.95790         0.68765         7.94355
   O      -16.15805         0.79704         7.81363
   C      -14.73027        -1.39358         9.42500
   C      -13.82541        -2.22871        10.09034
   C      -12.44099        -1.95000        10.00793
   C      -11.92858        -0.87568         9.29011
   S      -11.50068        -3.09324        10.91503
   C      -12.96078        -3.92025        11.38555
   C      -14.09581        -3.37173        10.89065
  Br      -12.85108        -5.43122        12.48864
   H       -7.89226         1.12523         4.46742
   H       -3.98087        -1.95818         5.02772
   H       -9.12155        -0.49065         6.37663
   H       -2.53954         1.86276         1.25547
   H       -6.41981         1.27813         0.49901
   H       -8.77535         1.02940         0.84800
   H       -9.73814         3.44356        -1.68537
   H       -6.87772         5.32571        -2.29777
   H       -3.09940         6.56402        -1.76254
   H       -6.08196         6.81254        -1.17842
   H       -4.28819         8.97352        -2.40799
   H       -5.84379        11.28484        -2.37858
   H       -8.15103        12.05175        -1.51909
   H      -10.46492        12.03429         0.03189
   H      -12.27446        11.17990         1.65805
   H      -13.18668         9.03770         2.64818
   H       -9.51738         7.14597         2.21874
   H       -7.51629         6.47169         1.67321
   H       -7.97483         2.85244         2.80051
   H      -11.34289         2.81644         3.70707
   H      -14.90235         4.51865         4.88566
   H      -12.42843         2.78384         5.35908
   H      -15.35406         2.60899         6.27215
   H      -15.79354        -1.56853         9.47435
   H      -10.86580        -0.70738         9.26217
   H      -15.08160        -3.75427        11.08137
*
