# ORCA input file
# SCF done       -181.678503910561          0.000902294422
! CAM-B3LYP def2-SVP def2/J RIJCOSX Grid4 TightSCF
%maxcore 5000
%tddft
    Mode sTDDFT
    Ethresh 5.0
    maxcore 5000
end

%pal
  nprocs 6
  end
* xyz 0 1
   C       -4.33001        -2.61511        -2.07548
   C       -2.96140        -2.66423        -2.11487
   C       -2.21306        -3.85908        -2.17975
   N       -1.55174        -4.79528        -2.23387
   C       -2.11455        -1.53619        -2.07935
   N       -1.36813        -0.66440        -2.05270
   C       -5.22699        -3.76121        -2.04033
   C       -6.55866        -3.29860        -1.89239
   C       -7.63515        -4.15003        -1.82597
   C       -7.38654        -5.52395        -1.90384
   C       -6.05273        -5.97742        -2.05524
   C       -4.96505        -5.11689        -2.12582
   S       -5.97281        -7.70980        -2.14235
   C       -7.70602        -7.80271        -1.97439
   C       -8.31566        -6.59832        -1.85885
  Br       -8.54576        -9.47790        -1.97253
   C       -6.57274        -1.82643        -1.84801
   O       -7.54713        -1.11151        -1.85303
   C       -5.14030        -1.41483        -1.96695
   C       -4.72564        -0.13124        -2.13134
   C       -5.50978         1.00399        -1.79259
   O       -5.28240         2.18934        -2.42505
   C       -6.46147         1.21056        -0.81355
   C       -7.15966         0.58944         0.32629
   O       -7.06672        -0.50532         0.81085
   N       -7.96381         1.61704         0.80906
   C       -7.83243         2.84213         0.15717
   O       -8.42587         3.84828         0.44030
   C       -6.83236         2.57100        -0.88187
   C       -6.08899         3.14425        -1.89933
   C       -6.09283         4.47642        -2.39497
   C       -5.33484         4.90225        -3.42947
   C       -5.38621         6.24547        -3.91487
   C       -4.72943         6.72494        -4.98591
   C       -3.80334         5.92146        -5.84158
   C       -4.94000         8.15778        -5.41686
   N       -3.70705         8.89995        -5.47626
   C       -3.12384         9.32881        -6.61327
   C       -1.91584         9.93978        -6.67160
   C       -1.31949        10.43932        -7.85589
   S        0.16285        11.36628        -7.73783
   C        0.27291        11.66145        -9.47498
   C       -0.82784        11.05804       -10.06715
   C       -1.68706        10.37006        -9.18565
   N       -2.68428         9.81530        -9.96492
   C       -2.46670        10.11506       -11.29611
   O       -3.14246         9.77790       -12.23218
   N       -1.32056        10.89933       -11.33102
   C        1.22972        12.47057       -10.09814
   C        2.41566        12.95674        -9.61590
   C        3.23886        12.55378        -8.50517
   C        3.36286        11.27527        -8.01710
   C        4.22615        10.91494        -6.96655
   N        4.89759        10.58078        -6.09653
   C        2.71963        10.17088        -8.60930
   N        2.26122         9.24742        -9.11586
   C        4.13735        13.66444        -8.20332
   C        4.02968        14.62346        -9.24192
   C        2.99908        14.18129       -10.20714
   O        2.66605        14.72691       -11.23706
   C        4.79216        15.76482        -9.27063
   C        5.69379        15.97440        -8.22081
   C        5.78377        15.01652        -7.18400
   C        5.01940        13.85557        -7.15876
   S        6.95465        15.47963        -5.98608
   C        7.30596        16.93168        -6.88545
   C        6.58384        17.06603        -8.02244
  Br        8.59206        18.13353        -6.23668
   H       -8.63656        -3.76635        -1.71160
   H       -3.96957        -5.50999        -2.24792
   H       -9.37700        -6.47154        -1.74788
   H       -3.74706         0.08690        -2.53867
   H       -8.58402         1.48991         1.59651
   H       -6.77198         5.14512        -1.88557
   H       -4.67912         4.19787        -3.91988
   H       -6.04356         6.91023        -3.36833
   H       -3.21282         5.22686        -5.25108
   H       -3.12495         6.57031        -6.39081
   H       -4.37592         5.34198        -6.56663
   H       -5.62883         8.65524        -4.72502
   H       -5.39122         8.17059        -6.41426
   H       -3.17987         8.97494        -4.61921
   H       -3.71611         9.18835        -7.50622
   H       -1.35506        10.09083        -5.76050
   H       -3.42162         9.20048        -9.67125
   H       -0.91739        11.24543       -12.18493
   H        0.94702        12.85224       -11.07549
   H        4.69978        16.47457       -10.07768
   H        5.11780        13.15246        -6.34808
   H        6.67305        17.89929        -8.69533
*
