# ORCA input file
# SCF done       -183.042622150099          0.000286949897
! CAM-B3LYP def2-SVP def2/J RIJCOSX Grid4 TightSCF
%maxcore 5000
%tddft
    Mode sTDDFT
    Ethresh 5.0
    maxcore 5000
end

%pal
  nprocs 6
  end
* xyz 0 1
   C       -9.77329        -1.86113        -1.62462
   C      -10.41056        -2.55983        -0.63028
   C      -10.91253        -3.86923        -0.78057
   N      -11.33679        -4.93474        -0.83600
   C      -10.66667        -2.08454         0.67233
   N      -10.91754        -1.77562         1.75033
   C       -9.55249        -2.34098        -2.98298
   C       -8.93219        -1.31150        -3.73101
   C       -8.60652        -1.44909        -5.05837
   C       -8.90741        -2.66361        -5.68156
   C       -9.51268        -3.69557        -4.92307
   C       -9.84285        -3.55481        -3.58080
   S       -9.78171        -5.11780        -5.88540
   C       -9.09754        -4.30828        -7.27286
   C       -8.68256        -3.04425        -7.03184
  Br       -8.98119        -5.20479        -8.90701
   C       -8.71560        -0.13236        -2.87264
   O       -8.14679         0.88683        -3.20098
   C       -9.25480        -0.50588        -1.53659
   C       -9.10894         0.21316        -0.38571
   C       -8.70581         1.58203        -0.28291
   C       -9.07835         2.50746        -1.25502
   C       -8.63171         3.81285        -1.23138
   C       -7.78963         4.28191        -0.22577
   C       -7.52077         3.40585         0.88053
   C       -7.96604         2.05603         0.84872
   C       -7.60488         1.24547         1.94340
   C       -6.88683         1.77981         2.98230
   C       -6.51541         3.12827         2.91396
   N       -6.80996         3.90268         1.90494
   C       -7.18282         5.56815        -0.23767
   C       -6.91964         6.33832        -1.33724
   C       -6.26055         7.60012        -1.33937
   C       -5.99260         8.09942        -2.57604
   C       -6.41637         7.25873        -3.63184
   S       -7.21120         5.83800        -2.99569
   C       -6.25765         7.39801        -4.99580
   C       -5.66374         8.43921        -5.74511
   C       -5.64551         8.20786        -7.08559
   C       -6.21346         6.96352        -7.48335
   S       -6.81894         6.12975        -6.06103
   C       -6.17541         6.43473        -8.74546
   C       -6.65947         5.15111        -9.14160
   C       -7.70238         4.53512        -8.45110
   C       -8.12210         3.25422        -8.74268
   C       -7.55192         2.50816        -9.76865
   C       -6.48965         3.10309       -10.51890
   C       -6.06415         4.43089       -10.23085
   C       -5.02369         4.94227       -11.02889
   C       -4.46368         4.17031       -12.01512
   C       -4.92295         2.85853       -12.16992
   N       -5.88638         2.34887       -11.45161
   C       -8.00735         1.16899        -9.96616
   C       -7.99488         0.34789       -11.04881
   C       -7.75949         0.55257       -12.46078
   C       -7.96940         1.71188       -13.15940
   C       -7.76175         1.84599       -14.54562
   N       -7.58429         2.01321       -15.66777
   C       -8.47102         2.89221       -12.57653
   N       -8.91429         3.86539       -12.15877
   C       -7.49256        -0.75571       -13.04889
   C       -7.77154        -1.75781       -12.08389
   C       -8.16776        -1.11020       -10.82337
   O       -8.51246        -1.64401        -9.78974
   C       -7.65239        -3.10036       -12.35183
   C       -7.22369        -3.47066       -13.63075
   C       -6.93332        -2.46448       -14.58301
   C       -7.06514        -1.10688       -14.31463
   S       -6.40844        -3.14727       -16.09185
   C       -6.58810        -4.75275       -15.43307
   C       -7.01731        -4.77863       -14.14959
  Br       -6.18779        -6.23927       -16.50390
   H       -8.13648        -0.64340        -5.60022
   H      -10.30255        -4.37023        -3.04782
   H       -8.26328        -2.40429        -7.78624
   H       -9.29638        -0.30253         0.54650
   H       -9.75341         2.20421        -2.03837
   H       -8.96930         4.48513        -2.00406
   H       -7.89856         0.20714         1.97591
   H       -6.61083         1.18086         3.83587
   H       -5.95235         3.59033         3.71476
   H       -6.80884         5.91505         0.71628
   H       -5.99861         8.08774        -0.41704
   H       -5.48774         9.03105        -2.75997
   H       -5.26092         9.31870        -5.27519
   H       -5.22675         8.88359        -7.81064
   H       -5.66170         7.03509        -9.48300
   H       -8.23179         5.08508        -7.68996
   H       -8.94007         2.82877        -8.17986
   H       -4.65667         5.94470       -10.87014
   H       -3.67647         4.55110       -12.64642
   H       -4.48558         2.19776       -12.90823
   H       -8.39111         0.69190        -9.06665
   H       -7.88321        -3.84290       -11.60352
   H       -6.83038        -0.37553       -15.07031
   H       -7.18299        -5.67914       -13.58690
*
