# ORCA input file
# SCF done       -171.974272959009          0.000403498953
! CAM-B3LYP def2-SVP def2/J RIJCOSX Grid4 TightSCF
%maxcore 5000
%tddft
    Mode sTDDFT
    Ethresh 5.0
    maxcore 5000
end

%pal
  nprocs 6
  end
* xyz 0 1
   C       30.52405        -7.39327        -7.05990
   C       29.35280        -7.07660        -6.48740
   C       29.04315        -5.92204        -5.69746
   C       27.75592        -5.86093        -5.27854
   C       26.95583        -6.95569        -5.69862
   S       27.90251        -8.08591        -6.63474
   C       25.61252        -7.13539        -5.42109
   C       24.75817        -6.23761        -4.75200
   C       23.48451        -6.71234        -4.60640
   C       23.27339        -7.99190        -5.14749
   S       24.74346        -8.59025        -5.87442
   C       22.07383        -8.69404        -5.09746
   C       21.82397        -9.93851        -5.62548
   C       20.59672       -10.58838        -5.48533
   C       20.21022       -11.83598        -5.98529
   C       18.92763       -12.20643        -5.64632
   C       18.26150       -11.26168        -4.86013
   S       19.28460        -9.88061        -4.56925
   C       16.97874       -11.31204        -4.30591
   C       16.00588       -12.31204        -4.40441
   C       14.85906       -12.03892        -3.69549
   C       14.88470       -10.81551        -3.01002
   S       16.40951       -10.00518        -3.30094
   C       13.91154       -10.25819        -2.18782
   C       14.08773        -9.03921        -1.55451
   C       13.20155        -8.42377        -0.69520
   C       13.50012        -7.19382        -0.10419
   O       14.67022        -6.55882        -0.38251
   C       14.71688        -5.39488         0.32009
   C       13.54021        -5.28097         1.07575
   C       12.76832        -6.41342         0.80892
   O       11.55666        -6.72516         1.31460
   O       13.16152        -4.28563         1.92337
   C       15.82273        -4.53938         0.19868
   C       16.88686        -4.81728        -0.62026
   C       18.00183        -3.98722        -0.79449
   C       19.02255        -4.30918        -1.64970
   C       20.16326        -3.53165        -1.90955
   S       21.33286        -4.13434        -3.08744
   C       22.31432        -2.73756        -2.87309
   N       23.44329        -2.37434        -3.43782
   C       23.85438        -1.21215        -3.00454
   S       22.75336        -0.47433        -1.76880
   C       21.74103        -1.85244        -1.92054
   C       20.54539        -2.30083        -1.38570
   C       24.95652        -0.44812        -3.39211
   C       25.96103        -0.76363        -4.27886
   C       26.97111         0.15981        -4.74381
   C       27.11669         1.48545        -4.40374
   C       28.13408         2.32127        -4.90487
   N       28.93569         3.05808        -5.27211
   C       26.29559         2.21722        -3.52333
   N       25.68491         2.89927        -2.82806
   C       27.82433        -0.55014        -5.69457
   C       27.34740        -1.87556        -5.82335
   C       26.22049        -2.08292        -4.88633
   O       25.72022        -3.15749        -4.62428
   C       27.91657        -2.78945        -6.67376
   C       29.04048        -2.39082        -7.40463
   C       29.52441        -1.07161        -7.25562
   C       28.92680        -0.13573        -6.41868
   S       30.93615        -0.79729        -8.23341
   C       30.85962        -2.44145        -8.81068
   C       29.82759        -3.15800        -8.30673
  Br       32.15640        -3.06382       -10.01599
   H       31.37939        -6.74971        -6.95146
   H       30.64757        -8.29006        -7.63856
   H       29.79673        -5.18560        -5.48052
   H       27.34050        -5.06923        -4.68052
   H       25.07517        -5.26462        -4.42527
   H       22.69115        -6.16960        -4.12623
   H       21.26501        -8.19378        -4.57776
   H       22.60402       -10.45294        -6.17144
   H       20.87390       -12.43880        -6.57991
   H       18.46950       -13.13271        -5.94332
   H       16.15795       -13.20580        -4.98281
   H       14.00693       -12.69414        -3.65212
   H       12.99640       -10.81506        -2.04033
   H       15.01861        -8.51874        -1.74323
   H       12.25352        -8.87161        -0.44192
   H       11.28967        -6.01760         1.91595
   H       13.84631        -3.60950         1.95605
   H       15.81209        -3.62482         0.77712
   H       16.85677        -5.74154        -1.18027
   H       18.04016        -3.06111        -0.23751
   H       18.95359        -5.24216        -2.19372
   H       19.97101        -1.76457        -0.65418
   H       24.97982         0.53490        -2.94086
   H       27.51456        -3.78451        -6.77446
   H       29.33001         0.86024        -6.34815
   H       29.63153        -4.18639        -8.55097
*
