# ORCA input file
# SCF done       -159.170504417048          0.000934477166
! CAM-B3LYP def2-SVP def2/J RIJCOSX Grid4 TightSCF
%maxcore 5000
%tddft
    Mode sTDDFT
    Ethresh 5.0
    maxcore 5000
end

%pal
  nprocs 6
  end
* xyz 0 1
   C        0.44702        -1.38802         1.16399
   C       -0.32182        -1.31038         2.30593
   C       -1.10911        -2.28321         2.96543
   C       -1.85183        -1.91026         4.04575
   C       -1.86619        -0.56998         4.49756
   C       -1.09622         0.39288         3.90347
   C       -0.27272         0.04251         2.82041
   C        0.52976         0.82387         1.96587
   C        1.02608        -0.09716         0.91383
   C        2.01126         0.15437         0.03352
   C        0.83757         2.18112         2.07563
   C        1.06987         2.92575         3.24925
   C        1.19494         2.51571         4.58740
   C        1.46462         3.44735         5.55205
   C        1.59609         4.81495         5.22941
   C        1.55252         5.24469         3.93429
   C        1.34342         4.30074         2.90592
   C        1.29327         4.42676         1.51837
   C        0.93250         3.13781         0.95033
   C        0.56789         2.90648        -0.31945
   N        1.47118         5.55334         0.75311
   C        2.37304         6.54029         0.96073
   S        3.76357         6.29872         1.97890
   C        4.36319         7.86076         1.49889
   N        5.55795         8.28957         2.06178
   O        5.98320         9.38900         1.73924
   O        6.10275         7.52588         2.84922
   C        3.54550         8.50617         0.60605
   C        2.38779         7.77668         0.29548
   C        1.36108         8.29116        -0.57761
   C        0.07359         7.91384        -0.61429
   C       -0.91596         8.47896        -1.52354
   C       -0.52308         8.89767        -2.79557
   C       -1.42931         9.42337        -3.70353
   C       -0.98570         9.85475        -5.06757
   C       -2.76002         9.50200        -3.33349
   C       -3.19487         9.07652        -2.07374
   C       -2.26171         8.58271        -1.14543
   C       -2.68803         8.23846         0.25314
   C       -4.60607         9.11364        -1.75945
   C       -5.50349         9.96934        -2.30185
   C       -6.87642         9.91471        -1.95768
   C       -7.83654        10.76674        -2.42307
   C       -9.24860        10.75300        -2.08582
   C       -9.90613         9.82637        -1.31712
   C      -11.28868         9.86452        -1.04010
   N      -12.40603         9.83801        -0.77767
   C       -9.31886         8.70102        -0.70313
   N       -8.92168         7.76108        -0.17511
   C       -9.86998        11.90238        -2.73364
   C       -8.88738        12.58943        -3.48748
   C       -7.58899        11.90172        -3.34521
   O       -6.54820        12.21847        -3.88273
   C       -9.16533        13.72274        -4.21189
   C      -10.47756        14.20586        -4.19016
   C      -11.45366        13.51396        -3.43389
   C      -11.17263        12.36668        -2.70315
   S      -13.00836        14.28285        -3.54169
   C      -12.33489        15.50628        -4.58615
   C      -11.01449        15.34908        -4.84254
  Br      -13.43775        16.87611        -5.23707
   H        0.63406        -2.26214         0.56965
   H       -1.12089        -3.29784         2.59599
   H       -2.46255        -2.63605         4.56278
   H       -2.50624        -0.31084         5.32794
   H       -1.13579         1.41610         4.24548
   H        2.49050         1.11492        -0.03857
   H        2.37399        -0.62203        -0.61957
   H        1.09607         1.47139         4.84059
   H        1.56959         3.14322         6.58257
   H        1.75219         5.52528         6.02731
   H        1.65718         6.29262         3.70092
   H        0.57090         3.68278        -1.06833
   H        0.24598         1.93458        -0.64696
   H        1.01105         5.56606        -0.15077
   H        3.77508         9.48128         0.21613
   H        1.68668         9.10883        -1.20673
   H       -0.29479         7.17909         0.08733
   H        0.51189         8.79271        -3.08630
   H        0.03752        10.22192        -5.04474
   H       -1.63420        10.63649        -5.45465
   H       -1.02594         9.01066        -5.75679
   H       -3.48464         9.86873        -4.04381
   H       -3.53136         8.84891         0.56396
   H       -1.87881         8.41299         0.95736
   H       -2.98123         7.18878         0.31955
   H       -4.96551         8.38686        -1.04135
   H       -5.19174        10.73812        -2.99148
   H       -7.16468         9.13701        -1.26184
   H       -8.39310        14.22253        -4.77541
   H      -11.95176        11.87889        -2.14203
   H      -10.44078        16.01148        -5.46458
*
