# ORCA input file
# SCF done       -149.896133661453          0.000473686339
! CAM-B3LYP def2-SVP def2/J RIJCOSX Grid4 TightSCF
%maxcore 5000
%tddft
    Mode sTDDFT
    Ethresh 5.0
    maxcore 5000
end

%pal
  nprocs 6
  end
* xyz 0 1
   C       -1.20535        -0.45710         2.61633
   C       -0.74921         0.69437         2.12324
   C        0.49618         0.76015         1.40730
   C        1.16273        -0.34779         1.02747
   C        0.60039        -1.72698         1.32750
   C       -0.40766        -1.72826         2.50187
   N       -1.34342        -2.82746         2.47087
   C       -1.59060        -3.38823         1.37403
   C       -0.92765        -3.00008         0.11445
   N        0.06311        -2.22890         0.08042
   F       -1.43070        -3.46878        -1.02402
   F       -2.48028        -4.37417         1.33059
   C        2.37856        -0.30502         0.26468
   S        3.29127         1.16135         0.09294
   C        4.51778         0.34536        -0.82256
   C        5.75039         1.03212        -1.11349
   O        5.94537         2.21453        -0.96047
   C        4.19857        -0.99624        -1.01627
   C        2.99490        -1.35075        -0.37987
   C        4.96421        -2.00612        -1.70684
   N        5.63109        -1.88494        -2.90119
   C        5.52697        -0.79597        -3.85133
   C        6.88936        -0.24771        -4.26498
   C        6.23512        -3.11351        -3.27685
   O        6.82386        -3.28458        -4.32412
   C        5.93657        -4.00352        -2.18395
   C        5.12042        -3.30312        -1.25548
   C        4.80372        -4.21469        -0.18046
   O        4.11838        -4.09525         0.81578
   N        5.47394        -5.40923        -0.52233
   C        5.33726        -6.56826         0.32546
   C        4.31206        -7.55810        -0.22375
   C        6.14771        -5.29366        -1.71974
   C        6.95839        -6.22676        -2.42962
   C        7.26823        -7.51007        -2.15711
   C        8.12372        -8.33630        -2.98074
   C        8.71210        -7.90598        -4.17247
   C        9.53000        -8.76891        -4.89455
   C        9.73262       -10.05142        -4.36962
   N        9.17296       -10.47716        -3.25455
   C        8.39240        -9.65427        -2.58458
   C       10.17011        -8.35766        -6.14237
   C       10.32963        -9.19059        -7.18196
   C       10.97689        -8.77757        -8.40324
   C       11.62051        -7.61488        -8.48764
   C       11.73897        -6.69881        -7.29878
   C       10.61105        -6.90681        -6.26365
   N       10.95662        -6.41923        -4.94660
   C       12.16691        -6.41631        -4.60784
   C       13.25460        -6.78945        -5.53254
   N       13.07347        -6.90719        -6.76971
   F       14.46443        -6.99564        -5.02145
   F       12.49858        -6.01359        -3.38523
   H       -2.13910        -0.53716         3.14934
   H       -1.30902         1.60829         2.24812
   H        0.88397         1.73466         1.14835
   H        1.43709        -2.39336         1.57742
   H        0.14533        -1.84562         3.44525
   H        6.55306         0.35454        -1.46139
   H        2.58975        -2.34333        -0.42231
   H        4.90825        -0.01057        -3.41277
   H        5.02176        -1.18257        -4.74464
   H        7.43499         0.14860        -3.41285
   H        6.74914         0.55189        -4.98693
   H        7.47882        -1.03683        -4.72260
   H        4.99115        -6.19013         1.29250
   H        6.31432        -7.03653         0.46647
   H        3.33151        -7.08970        -0.25890
   H        4.25647        -8.42970         0.42274
   H        4.57464        -7.87999        -1.22903
   H        7.36468        -5.77290        -3.32423
   H        6.88401        -8.00845        -1.28018
   H        8.52959        -6.91187        -4.54444
   H       10.39015       -10.75505        -4.86233
   H        7.95852       -10.05894        -1.67859
   H        9.95998       -10.20311        -7.12477
   H       10.93809        -9.45144        -9.24528
   H       12.16740        -7.32061        -9.36783
   H       11.72180        -5.65597        -7.64511
   H        9.73287        -6.32420        -6.57675
*
