# ORCA input file
# SCF done       -179.455520249572          0.000699040173
! CAM-B3LYP def2-SVP def2/J RIJCOSX Grid4 TightSCF
%maxcore 5000
%tddft
    Mode sTDDFT
    Ethresh 5.0
    maxcore 5000
end

%pal
  nprocs 6
  end
* xyz 0 1
   C        1.21945         0.18085        -6.27232
   C        0.28891         0.81233        -7.03910
   S       -0.23611        -0.19451        -8.33745
   C        0.81936        -1.49681        -7.84172
  Cl        0.88239        -2.95670        -8.69726
   C        1.52530        -1.14074        -6.73088
   C        2.53373        -1.75818        -5.86341
   O        2.99915        -2.86926        -5.95205
   C        2.80373        -0.72815        -4.80603
   C        2.01718         0.46864        -5.09983
   C        2.04281         1.67291        -4.45165
   C        1.22603         2.74672        -4.86839
   N        0.56667         3.62814        -5.19013
   C        2.86026         2.00545        -3.35198
   N        3.50352         2.34733        -2.46485
   C        3.50565        -0.91921        -3.66240
   C        4.35092        -2.02740        -3.29315
   C        4.42741        -2.37459        -1.94276
   C        5.23187        -3.40827        -1.49571
   N        5.18699        -3.59832        -0.06441
   O        4.09396        -3.55835         0.45660
   O        6.23056        -3.73805         0.53752
   C        6.00820        -4.17519        -2.39322
   C        5.93385        -3.78342        -3.74559
   C        5.15409        -2.74445        -4.19023
   C        6.80762        -5.34534        -2.13743
   C        7.18162        -5.92270        -0.97046
   C        7.96951        -7.10517        -0.94027
   N        8.35563        -7.71218         0.23056
   C        7.99047        -7.31467         1.57032
   C        6.56865        -7.74550         1.92100
   C        9.13471        -8.85684        -0.00109
   O        9.59439        -9.54977         0.88482
   C        9.22929        -8.93929        -1.44319
   C        8.50554        -7.85051        -1.99007
   C        8.60908        -7.93079        -3.43130
   O        8.16697        -7.22683        -4.31893
   N        9.38027        -9.08061        -3.66250
   C        9.75084        -9.48030        -4.99887
   C       11.18614        -9.08121        -5.33203
   C        9.76067        -9.69104        -2.48967
   C       10.52823       -10.88110        -2.43179
   C       10.90999       -11.44556        -1.25843
   C       11.65819       -12.64980        -1.21164
   S       12.15329       -13.38428         0.30477
   C       12.87257       -14.64204        -0.69083
   N       12.70420       -14.42367        -1.96876
   N       12.04893       -13.34273        -2.25175
   C       13.54262       -15.76507        -0.13625
   C       13.92697       -16.82016        -0.89258
   C       14.59873       -17.94982        -0.36107
   C       14.78056       -19.14758        -0.97886
   C       15.83285       -20.09307        -0.48957
   O       16.41702       -20.03509         0.56487
   C       16.01017       -21.03920        -1.59859
   C       16.82672       -22.08819        -1.89922
   S       16.42666       -22.74646        -3.46858
   C       15.15330       -21.60273        -3.69520
   C       15.05177       -20.76414        -2.63045
   C       14.19686       -19.67369        -2.19885
   C       12.97599       -19.37284        -2.74143
   C       12.52848       -20.00048        -3.92327
   N       12.16608       -20.49353        -4.89355
   C       12.00951       -18.54110        -2.13819
   N       11.16273       -17.93633        -1.65449
  Cl       18.07607       -22.74286        -0.96164
   H       -0.12908         1.79356        -6.93177
   H        3.40530        -0.16708        -2.88813
   H        3.83425        -1.83642        -1.21669
   H        6.52215        -4.33857        -4.46061
   H        5.16932        -2.47723        -5.23300
   H        7.15249        -5.82491        -3.04588
   H        6.93493        -5.49628        -0.01245
   H        8.10565        -6.23309         1.67774
   H        8.69962        -7.81384         2.23634
   H        5.84424        -7.28859         1.25058
   H        6.33666        -7.44504         2.93860
   H        6.47624        -8.82646         1.84666
   H        9.05964        -8.96388        -5.67079
   H        9.61208       -10.55898        -5.10961
   H       11.30111        -8.00298        -5.25082
   H       11.42324        -9.38026        -6.34907
   H       11.89054        -9.55790        -4.65419
   H       10.81450       -11.36472        -3.35413
   H       10.64570       -10.99184        -0.31324
   H       13.68841       -15.76948         0.93477
   H       13.72243       -16.78279        -1.95310
   H       15.07783       -17.84049         0.60623
   H       14.57800       -21.62615        -4.59941
*
