# ORCA input file
# SCF done       -176.480388988625          0.000753101448
! CAM-B3LYP def2-SVP def2/J RIJCOSX Grid4 TightSCF
%maxcore 5000
%tddft
    Mode sTDDFT
    Ethresh 5.0
    maxcore 5000
end

%pal
  nprocs 6
  end
* xyz 0 1
   C        2.24865         1.39788        -3.11215
   C        1.60604         2.10856        -4.07842
   S        0.50357         3.24261        -3.38857
   C        0.92257         2.76035        -1.76087
  Cl        0.19469         3.47282        -0.41141
   C        1.85714         1.76934        -1.78484
   C        2.59812         0.97474        -0.80322
   O        2.66456         1.14018         0.39074
   C        3.40431         0.01346        -1.63044
   C        3.23399         0.33836        -3.03658
   C        3.83000        -0.25425        -4.11922
   C        3.53548         0.15633        -5.43650
   N        3.31406         0.48016        -6.51464
   C        4.77821        -1.29402        -4.06486
   N        5.55592        -2.13889        -4.08214
   C        4.23721        -0.92836        -1.11083
   C        4.17426        -1.38273         0.23225
   O        5.27775        -1.92465         0.81364
   C        3.12090        -1.48950         1.12181
   C        1.66356        -1.31648         1.26229
   O        0.83318        -0.94956         0.47438
   N        1.41246        -1.75850         2.55276
   C        2.51977        -2.25180         3.25018
   O        2.48596        -2.69918         4.36196
   C        3.62449        -2.09031         2.29287
   C        4.97320        -2.33939         2.07410
   C        5.96527        -2.90209         2.91171
   C        7.23278        -3.13900         2.47562
   C        8.25160        -3.67130         3.29898
   N        9.52633        -3.95409         2.85897
   C       10.04908        -3.73762         1.53175
   C       10.41743        -2.27462         1.29619
   C       10.34416        -4.45396         3.89051
   O       11.50520        -4.77370         3.73926
   C        9.47380        -4.47661         5.04380
   C        8.20395        -3.99980         4.65394
   C        7.35740        -4.01535         5.82664
   O        6.19849        -3.70201         5.99504
   N        8.18875        -4.49530         6.86302
   C        7.62903        -4.69620         8.17805
   C        7.36712        -6.17180         8.46882
   C        9.45671        -4.77604         6.40760
   C       10.60662        -5.23856         7.09193
   C       10.79102        -5.48756         8.41471
   C       12.02097        -5.91649         8.97549
   C       13.22625        -6.19899         8.35755
   C       14.20025        -6.58043         9.27677
   C       13.76153        -6.59381        10.61143
   S       12.10604        -6.13312        10.72032
   C       14.74116        -6.96318        11.53158
   C       15.93576        -7.23775        10.89790
   S       15.86063        -7.04374         9.15891
   C       17.14070        -7.63309        11.53292
   O       18.25254        -7.90227        10.80332
   C       17.43725        -7.80840        12.86834
   C       16.89954        -7.74504        14.22640
   O       15.80011        -7.46005        14.62971
   N       17.98161        -8.10475        15.02459
   C       19.16232        -8.39691        14.34049
   O       20.19737        -8.72406        14.85667
   C       18.80042        -8.20238        12.93189
   C       19.26832        -8.25024        11.63912
   C       20.56443        -8.59043        11.12444
   C       20.86788        -8.59413         9.82779
   H        1.70056         2.04900        -5.14457
   H        4.99446        -1.39527        -1.72703
   H        0.48576        -1.75167         2.95523
   H        5.66391        -3.13075         3.92484
   H        7.47854        -2.91129         1.44789
   H        9.32268        -4.08163         0.79048
   H       10.94812        -4.35616         1.45798
   H        9.54839        -1.62915         1.40302
   H       10.82203        -2.15440         0.29509
   H       11.17057        -1.96238         2.01555
   H        6.67817        -4.15415         8.17697
   H        8.28051        -4.24608         8.93136
   H        6.64078        -6.56248         7.76053
   H        6.96614        -6.28278         9.47248
   H        8.27862        -6.75958         8.38694
   H       11.44447        -5.37636         6.42122
   H        9.99311        -5.35454         9.12805
   H       13.38760        -6.13131         7.29817
   H       14.61076        -7.03000        12.59664
   H       17.91755        -8.15092        16.03178
   H       21.28736        -8.84991        11.88431
   H       20.13596        -8.33586         9.08102
   H       21.85101        -8.85846         9.48189
*
