# ORCA input file
# SCF done       -207.597440187000          0.000799187213
! CAM-B3LYP def2-SVP def2/J RIJCOSX Grid4 TightSCF
%maxcore 5000
%tddft
    Mode sTDDFT
    Ethresh 5.0
    maxcore 5000
end

%pal
  nprocs 6
  end
* xyz 0 1
   C        2.37281         3.12399        -0.34779
   C        1.21104         2.68371        -0.90879
   C        1.02386         2.56093        -2.30185
   N        0.83335         2.46837        -3.42918
   C        0.12993         2.18212        -0.14848
   N       -0.70748         1.64139         0.41899
   C        3.64600         3.30449        -1.03200
   C        4.69630         3.17591        -0.07379
   C        6.01110         3.24071        -0.44108
   C        6.33733         3.45325        -1.79831
   C        5.29133         3.60438        -2.75571
   C        3.93983         3.52466        -2.35081
   C        5.63332         3.82362        -4.10574
   C        6.94362         3.88578        -4.49439
   C        7.97248         3.73408        -3.55215
   C        7.67612         3.52263        -2.23326
   C        4.12440         2.99652         1.26940
   O        4.68959         2.78707         2.31247
   C        2.64677         3.22976         1.08237
   C        1.93294         3.69148         2.11391
   C        0.61027         4.41223         2.13135
   C       -0.40426         3.62067         2.97076
   N        0.06929         4.54954         0.78311
   N        0.08486         5.53959         0.09077
   C        0.73866         6.81095         0.43335
   C        0.90482         6.92203         1.90408
   C        0.85560         5.75634         2.72334
   N        0.97721         6.13838         3.96209
   O        1.09870         7.47210         3.93354
   N        1.04523         7.95428         2.68509
   C        2.11055         6.72187        -0.26336
   C       -0.03451         7.99397        -0.07143
   N       -1.39473         8.04995        -0.16287
   C       -2.36255         7.01826         0.12662
   C       -2.71006         6.96620         1.61196
   C       -1.83402         9.34379        -0.55435
   O       -3.00095         9.63116        -0.71116
   C       -0.61534        10.09393        -0.69765
   C        0.47890         9.22895        -0.40089
   C        1.68473        10.01870        -0.52221
   O        2.85942         9.73646        -0.39087
   N        1.23875        11.31084        -0.86065
   C        2.20972        12.34288        -1.13626
   C        2.31312        12.64850        -2.62814
   C       -0.13431        11.36517        -0.96602
   C       -1.00360        12.45869        -1.25253
   C       -0.72774        13.77379        -1.37719
   C       -1.70467        14.80205        -1.64397
   C       -1.30152        16.13807        -1.59589
   C       -2.19051        17.17123        -1.83309
   N       -1.67131        18.50782        -1.67938
   O       -0.47804        18.65732        -1.83904
   O       -2.44294        19.39569        -1.38538
   C       -3.53836        16.92437        -2.16640
   C       -3.92497        15.57435        -2.21867
   C       -3.04973        14.54841        -1.95737
   C       -4.46411        17.97190        -2.51501
   C       -5.81103        17.84871        -2.46703
   C       -6.66997        18.90630        -2.86733
   C       -8.02985        18.82457        -2.89106
   C       -8.96183        19.87083        -3.28298
   C       -8.64845        21.08886        -3.82546
   C       -9.60418        22.06346        -4.18489
   N      -10.32832        22.89885        -4.49417
   C       -7.34909        21.54348        -4.13745
   N       -6.33278        21.98255        -4.44206
   C      -10.31220        19.37760        -3.03774
   C      -10.23034        18.03734        -2.56290
   C       -8.81928        17.63207        -2.47250
   O       -8.39906        16.54568        -2.13203
   C      -11.34444        17.30599        -2.26540
   C      -12.61824        17.89297        -2.43065
   C      -12.70979        19.23593        -2.89855
   C      -11.53847        19.96830        -3.19783
   C      -13.98620        19.81252        -3.06073
   C      -15.11810        19.09777        -2.77761
   C      -15.02661        17.77529        -2.31784
   C      -13.80336        17.18594        -2.14723
   H        6.79207         3.13094         0.29646
   H        3.16444         3.64814        -3.09097
   H        4.83823         3.93573        -4.82802
   H        7.19522         4.05155        -5.53107
   H        9.00067         3.78607        -3.87699
   H        8.46351         3.40540        -1.50337
   H        2.40579         3.65900         3.08959
   H       -0.60389         2.66488         2.49518
   H       -1.33582         4.17731         3.04240
   H       -0.00395         3.46935         3.96910
   H        2.71622         5.94350         0.19903
   H        2.63225         7.67265        -0.18089
   H        1.96159         6.47990        -1.31334
   H       -1.97951         6.05642        -0.22210
   H       -3.25951         7.27781        -0.44282
   H       -1.83080         6.74989         2.21571
   H       -3.44950         6.19002         1.78753
   H       -3.11950         7.92053         1.93424
   H        3.16511        11.94636        -0.77891
   H        1.97483        13.23957        -0.55760
   H        2.62445        11.75662        -3.16642
   H        3.05223        13.42758        -2.79267
   H        1.35880        12.97897        -3.03167
   H       -2.03011        12.12555        -1.33419
   H        0.27988        14.14074        -1.25725
   H       -0.28051        16.39266        -1.34881
   H       -4.93954        15.33802        -2.49701
   H       -3.40693        13.53249        -2.01229
   H       -4.04965        18.92144        -2.82803
   H       -6.27862        16.94532        -2.10596
   H       -6.18976        19.82937        -3.16591
   H      -11.25335        16.29041        -1.90949
   H      -11.64362        20.98275        -3.54778
   H      -14.05167        20.83055        -3.41567
   H      -16.09110        19.54751        -2.90683
   H      -15.93028        17.22605        -2.09978
   H      -13.72644        16.16821        -1.79348
*
