# ORCA input file
# SCF done       -190.693632166603          0.000556160749
! CAM-B3LYP def2-SVP def2/J RIJCOSX Grid4 TightSCF
%maxcore 5000
%tddft
    Mode sTDDFT
    Ethresh 5.0
    maxcore 5000
end

%pal
  nprocs 6
  end
* xyz 0 1
   C        0.95046         1.24066        -3.70700
   C        0.18851         1.09922        -4.83771
   C        0.48299         0.19136        -5.87788
   N        0.65972        -0.51968        -6.76161
   C       -1.00754         1.78711        -5.13459
   N       -1.99575         2.27990        -5.45147
   C        2.12748         0.44156        -3.39017
   C        2.55657         0.77360        -2.07502
   C        3.63546         0.17420        -1.49117
   C        4.35195        -0.80554        -2.21329
   C        3.93312        -1.14111        -3.53335
   C        2.81169        -0.50241        -4.11032
   C        4.65490        -2.12032        -4.24597
   C        5.73743        -2.73970        -3.68309
   C        6.14916        -2.40791        -2.38356
   C        5.47123        -1.46138        -1.66419
   C        1.67659         1.80959        -1.51276
   O        1.76519         2.28467        -0.39945
   C        0.70383         2.14065        -2.58684
   C       -0.21510         3.15094        -2.62357
   C       -0.62905         4.08215        -1.64410
   S       -1.80447         5.28144        -2.14763
   C       -1.88526         5.96984        -0.56433
   C       -1.02015         5.28420         0.30762
   C       -0.32627         4.23541        -0.30261
   C       -0.83345         5.59057         1.66659
   N       -0.65486         5.81589         2.77802
   C       -2.75893         7.05646        -0.32861
   C       -2.97326         7.63407         0.88560
   C       -3.88144         8.69988         1.07613
   N       -4.12703         9.27384         2.30277
   C       -3.47112         8.95746         3.54994
   C       -2.07339         9.56485         3.63027
   C       -5.09512        10.28501         2.22611
   O       -5.47922        10.92507         3.18648
   C       -5.46675        10.32284         0.82805
   C       -4.70308         9.34361         0.14918
   C       -5.07201         9.38099        -1.24847
   O       -4.68888         8.74372        -2.20975
   N       -6.04272        10.39382        -1.32508
   C       -6.69969        10.70168        -2.57234
   C       -8.07279        10.04129        -2.67026
   C       -6.29820        10.95875        -0.09615
   C       -7.24505        11.98825         0.11923
   C       -7.48715        12.49394         1.35833
   C       -8.43567        13.50250         1.65701
   S       -8.65597        13.99231         3.31160
   C       -9.89739        15.12917         2.88444
   C      -10.10451        15.12149         1.49846
   C       -9.28463        14.20898         0.82295
   C      -11.00130        15.94308         0.78994
   N      -11.69059        16.58045         0.13153
   C      -10.52161        15.87206         3.91235
   C      -11.58123        16.71624         3.77996
   C      -12.10734        17.37898         4.91331
   C      -13.20088        18.19614         4.91501
   C      -13.75542        18.90279         6.05551
   C      -13.32064        18.84239         7.35518
   C      -13.91122        19.55254         8.42185
   N      -14.33910        20.09960         9.33623
   C      -12.24195        18.06828         7.83059
   N      -11.38221        17.46916         8.30139
   C      -14.88523        19.69445         5.58123
   C      -15.05009        19.46643         4.18523
   C      -14.02626        18.51603         3.71728
   O      -13.89881        18.08159         2.59378
   C      -16.03636        20.07548         3.46465
   C      -16.92134        20.96092         4.11947
   C      -16.76332        21.19618         5.51587
   C      -15.73266        20.54985         6.23560
   C      -17.65166        22.08140         6.16019
   C      -18.64849        22.70499         5.46053
   C      -18.80295        22.47275         4.08554
   C      -17.95789        21.61934         3.42933
   H        3.93684         0.44491        -0.49009
   H        2.52561        -0.77677        -5.11294
   H        4.33347        -2.37317        -5.24568
   H        6.28274        -3.48946        -4.23642
   H        7.00600        -2.90619        -1.95538
   H        5.78320        -1.20184        -0.66314
   H       -0.73279         3.28619        -3.56611
   H        0.37761         3.60833         0.21494
   H       -3.29571         7.42898        -1.19213
   H       -2.45099         7.26594         1.75468
   H       -3.42754         7.87266         3.67841
   H       -4.10207         9.38172         4.33594
   H       -1.43013         9.17237         2.84620
   H       -1.62867         9.32704         4.59203
   H       -2.12945        10.64603         3.52830
   H       -6.04986        10.31091        -3.36040
   H       -6.77769        11.78643        -2.68692
   H       -7.96922         8.96111        -2.60465
   H       -8.53279        10.28840        -3.62295
   H       -8.72654        10.37503        -1.86726
   H       -7.78640        12.36358        -0.73655
   H       -6.93199        12.10137         2.20059
   H       -9.31858        14.08033        -0.24423
   H      -10.10878        15.71599         4.90295
   H      -12.04626        16.88613         2.82053
   H      -11.58366        17.21120         5.84620
   H      -16.13828        19.88346         2.40687
   H      -15.64052        20.75121         7.29091
   H      -17.52870        22.25664         7.21895
   H      -19.32393        23.38110         5.96297
   H      -19.59497        22.97355         3.54906
   H      -18.07182        21.43649         2.37086
*
