# ORCA input file
# SCF done       -156.760895658412          0.000344898509
! CAM-B3LYP def2-SVP def2/J RIJCOSX Grid4 TightSCF
%maxcore 5000
%tddft
    Mode sTDDFT
    Ethresh 5.0
    maxcore 5000
end

%pal
  nprocs 6
  end
* xyz 0 1
   C       -2.04525         0.05291         4.96768
   N       -1.55405         1.22745         5.44669
   C       -0.96415         1.42880         6.74614
   C       -2.02035         1.44282         7.84807
   C       -1.74721         2.28049         4.52575
   O       -1.38764         3.42430         4.73663
   C       -2.40504         1.65158         3.40805
   C       -2.57119         0.26390         3.72505
   C       -3.22405        -0.37481         2.60018
   O       -3.56745        -1.51732         2.39504
   N       -3.40547         0.67123         1.67287
   C       -4.07796         0.44404         0.41711
   C       -5.53331         0.90360         0.45991
   C       -2.92800         1.87471         2.14263
   C       -2.98328         3.08405         1.39716
   C       -2.49999         4.25519         1.87458
   C       -2.55646         5.45987         1.12339
   S       -1.86856         6.96452         1.72945
   C       -2.42351         7.67187         0.21609
   N       -3.02681         6.80297        -0.54933
   N       -3.09721         5.60066        -0.05489
   C       -2.20900         9.04108        -0.09693
   C       -2.64958         9.60602        -1.24490
   C       -2.42053        10.93850        -1.55467
   C       -2.19857        12.10550        -1.81085
   C       -1.90163        13.43730        -2.06424
   N       -2.33465        14.11595        -3.16632
   C       -1.85494        15.39289        -3.13262
   C       -1.09562        15.53116        -1.97001
   C       -1.12757        14.31415        -1.30282
   C       -2.11129        16.33914        -4.11548
   C       -2.30591        17.19696        -4.95327
   C       -2.49059        18.20301        -5.89137
   C       -3.35730        18.13186        -6.92531
   C       -3.52502        19.17123        -7.87894
   S       -2.57057        20.65500        -7.89896
   C       -3.53002        21.09393        -9.30923
   N       -4.40668        20.17961        -9.61919
   N       -4.40177        19.13329        -8.84363
   C       -3.32501        22.31686       -10.00118
   C       -4.08374        22.67495       -11.06516
   C       -3.87957        23.88295       -11.78146
   N       -4.66697        24.28301       -12.83815
   C       -5.84777        23.61681       -13.33026
   C       -7.05120        23.84880       -12.41980
   C       -4.23790        25.50422       -13.38573
   O       -4.78549        26.04254       -14.32804
   C       -3.08471        25.86563       -12.59294
   C       -2.89472        24.84926       -11.61345
   C       -1.74241        25.20740       -10.82372
   O       -1.19717        24.67233        -9.87642
   N       -1.30663        26.42591       -11.37740
   C       -0.12041        27.08090       -10.88378
   C        1.09000        26.80937       -11.77434
   C       -2.09532        26.82322       -12.43143
   C       -1.87726        28.03569       -13.16732
   C       -2.63951        28.40486       -14.19883
   H       -1.97682        -0.85115         5.54403
   H       -0.45332         2.39473         6.70640
   H       -0.22853         0.64061         6.93331
   H       -2.73768         2.23974         7.66787
   H       -1.54692         1.61135         8.81121
   H       -2.55391         0.49540         7.88166
   H       -4.03951        -0.63588         0.24739
   H       -3.53471         0.94824        -0.38679
   H       -6.06688         0.37041         1.24304
   H       -6.01297         0.69434        -0.49216
   H       -5.59961         1.97091         0.65847
   H       -3.42183         3.06997         0.41046
   H       -2.04745         4.30834         2.85498
   H       -1.66671         9.62846         0.62988
   H       -3.19627         9.00591        -1.95975
   H       -2.91274        13.73131        -3.89574
   H       -0.58943        16.42486        -1.66361
   H       -0.64938        14.07158        -0.37479
   H       -1.88545        19.09240        -5.75401
   H       -3.98176        17.26256        -7.07308
   H       -2.53057        22.95829        -9.64625
   H       -4.87147        22.00783       -11.38294
   H       -5.64694        22.54781       -13.44268
   H       -6.04500        24.04573       -14.31696
   H       -6.86746        23.45341       -11.42331
   H       -7.92677        23.35766       -12.83516
   H       -7.25495        24.91390       -12.33897
   H        0.05873        26.66713        -9.88717
   H       -0.30324        28.15508       -10.79075
   H        1.28307        25.74040       -11.81959
   H        1.96690        27.30404       -11.36579
   H        0.92027        27.17285       -12.78553
   H       -1.05460        28.65999       -12.84662
   H       -3.46366        27.79891       -14.53623
   H       -2.45311        29.32338       -14.72816
*
