# ORCA input file
# SCF done       -137.684397201175          0.000373100383
! CAM-B3LYP def2-SVP def2/J RIJCOSX Grid4 TightSCF
%maxcore 5000
%tddft
    Mode sTDDFT
    Ethresh 5.0
    maxcore 5000
end

%pal
  nprocs 6
  end
* xyz 0 1
   C        0.13810        -1.87474         1.32722
   N        0.55154        -0.77930         2.02087
   C        1.35713        -0.79286         3.21602
   C        0.54225        -1.20556         4.43899
   C        0.03589         0.40859         1.46278
   O        0.26755         1.51538         1.91717
   C       -0.74040        -0.04119         0.33450
   C       -0.65015        -1.47155         0.28818
   C       -1.42033        -1.93014        -0.84960
   O       -1.64244        -3.03224        -1.29729
   N       -1.91988        -0.74196        -1.42335
   C       -2.79691        -0.78307        -2.56799
   C       -4.25990        -0.59598        -2.17251
   C       -1.52564         0.37889        -0.72798
   C       -1.88586         1.70470        -1.10934
   C       -1.50202         2.78231        -0.39159
   C       -1.80616         4.15884        -0.68788
   C       -2.55524         4.57070        -1.78865
   C       -2.80756         5.91266        -2.02571
   N       -3.54088         6.21693        -3.22593
   O       -4.24149         5.33686        -3.68550
   O       -3.41224         7.31556        -3.72543
   C       -2.33744         6.92116        -1.15990
   C       -1.59022         6.48757        -0.05293
   C       -1.32506         5.15974         0.17337
   C       -2.64841         8.31886        -1.33261
   C       -1.88845         9.32349        -0.85527
   C       -2.21910        10.70311        -0.99345
   O       -3.36867        11.10981        -1.57534
   C       -3.38976        12.44716        -1.54591
   C       -2.26967        12.94846        -0.95428
   C       -1.50236        11.81839        -0.58305
   S        0.07361        11.76459         0.18224
   C       -0.03301        13.12650         1.25995
   C        1.01266        13.53753         1.99405
   C        0.97418        14.62436         2.92116
   S        2.38007        14.98432         3.86787
   C        1.57086        16.29821         4.66094
   C        2.24467        16.95748         5.74758
   O        3.40148        16.77730         6.05128
   C        0.27081        16.45602         4.18052
   C       -0.05566        15.49347         3.20986
   C       -0.64622        17.49505         4.57798
   S       -2.35360        17.20347         4.52971
   C       -2.68828        18.81898         5.06318
   C       -4.04717        19.27523         5.25165
   O       -4.35510        20.38258         5.61883
   C       -1.52307        19.53015         5.24946
   C       -0.37404        18.78642         4.97466
   H        0.44366        -2.86209         1.62011
   H        1.73547         0.22466         3.34604
   H        2.20067        -1.47451         3.07212
   H       -0.28292        -0.51358         4.58867
   H        1.17224        -1.19352         5.32392
   H        0.13775        -2.20724         4.31112
   H       -2.66219        -1.77310        -3.01292
   H       -2.48961        -0.02696        -3.29623
   H       -4.56132        -1.38396        -1.48674
   H       -4.88916        -0.64513        -3.05678
   H       -4.41526         0.36417        -1.68519
   H       -2.47965         1.81531        -2.00430
   H       -0.90694         2.62280         0.49786
   H       -2.94798         3.85667        -2.49608
   H       -1.23798         7.22432         0.65152
   H       -0.74286         4.86589         1.03400
   H       -3.53225         8.57638        -1.89817
   H       -0.94651         9.13945        -0.35836
   H       -4.24143        12.93621        -1.97578
   H       -2.01898        13.98014        -0.81721
   H       -1.00319        13.59103         1.31382
   H        1.95709        13.01997         1.90451
   H        1.59852        17.64256         6.32870
   H       -1.01749        15.46159         2.73037
   H       -4.81012        18.50487         5.02536
   H       -1.52574        20.55625         5.57025
   H        0.62199        19.18739         5.02513
*
