# ORCA input file
# SCF done       -145.878451795502          0.000278959820
! CAM-B3LYP def2-SVP def2/J RIJCOSX Grid4 TightSCF
%maxcore 5000
%tddft
    Mode sTDDFT
    Ethresh 5.0
    maxcore 5000
end

%pal
  nprocs 6
  end
* xyz 0 1
   C        2.60519         4.82072         6.46518
   N        3.28669         5.24513         5.36971
   C        4.71857         5.22237         5.20330
   C        5.39110         6.35352         5.97655
   C        2.41344         5.79230         4.39706
   O        2.78705         6.23796         3.33196
   C        1.10864         5.65718         4.99756
   C        1.26890         5.04908         6.27983
   C       -0.04909         4.91997         6.86447
   O       -0.43416         4.48718         7.92626
   N       -0.92196         5.45732         5.88661
   C       -2.34182         5.46690         6.14075
   C       -3.04065         4.26346         5.51082
   C       -0.23926         5.89095         4.77178
   C       -0.71333         6.49462         3.57259
   C       -1.97930         6.69507         3.13939
   C       -2.29663         7.32367         1.89894
   S       -3.95417         7.42642         1.40146
   C       -3.52128         8.22648        -0.07888
   C       -4.60185         8.63156        -0.94239
   O       -4.51438         9.14125        -2.03674
   C       -2.14119         8.41699        -0.15806
   C       -1.46791         7.90804         0.96138
   C       -1.44766         9.11266        -1.23909
   C       -1.76967         8.91654        -2.57563
   C       -1.10755         9.65286        -3.55671
   C       -0.08744        10.51304        -3.13948
   N        0.24515        10.67720        -1.87561
   C       -0.41833        10.01454        -0.94963
   C       -1.49943         9.53665        -4.94538
   S       -0.38704         9.77064        -6.24699
   C       -1.63482         9.48177        -7.41183
   C       -1.28233         9.42038        -8.81097
   O       -0.17623         9.62667        -9.24724
   C       -2.85875         9.22639        -6.80207
   C       -2.76516         9.25687        -5.39708
   C       -4.08612         9.02593        -7.54051
   N       -5.02150         8.06291        -7.25340
   C       -4.90950         6.98896        -6.29616
   C       -3.75823         6.04311        -6.62353
   C       -6.12163         8.12919        -8.13792
   O       -7.06015         7.35826        -8.08304
   C       -5.82324         9.24590        -8.99832
   C       -4.55025         9.76590        -8.60513
   C       -4.26674        10.92234        -9.42472
   O       -3.33516        11.69691        -9.45638
   N       -5.38106        11.00788       -10.28700
   C       -5.49052        12.08087       -11.24445
   C       -6.40965        13.19417       -10.74698
   C       -6.30895        10.02528       -10.03403
   C       -7.53399         9.88847       -10.77180
   C       -8.44008         8.94762       -10.50100
   H        3.11902         4.37751         7.29838
   H        4.90822         5.33878         4.13292
   H        5.10237         4.25279         5.53371
   H        5.02225         7.31494         5.62782
   H        6.46583         6.31667         5.82333
   H        5.18615         6.26674         7.04143
   H       -2.76955         6.41125         5.79622
   H       -2.45055         5.41153         7.22854
   H       -2.86752         4.22128         4.43762
   H       -4.11014         4.31882         5.69438
   H       -2.65949         3.34753         5.95515
   H        0.10442         6.80474         2.93497
   H       -2.83345         6.36934         3.71131
   H       -5.59370         8.42043        -0.49553
   H       -0.39926         7.95398         1.06756
   H       -2.51192         8.18788        -2.85658
   H        0.47262        11.09456        -3.85989
   H       -0.12644        10.21748         0.07208
   H       -2.12089         9.12535        -9.46799
   H       -3.60424         9.15365        -4.73273
   H       -5.86162         6.45250        -6.35325
   H       -4.79889         7.39250        -5.28642
   H       -3.87634         5.64086        -7.62701
   H       -3.75135         5.21738        -5.91732
   H       -2.80155         6.55770        -6.56545
   H       -5.83827        11.68609       -12.20332
   H       -4.47736        12.47319       -11.37191
   H       -7.41504        12.81959       -10.56632
   H       -6.45845        13.98951       -11.48555
   H       -6.02189        13.60528        -9.81819
   H       -7.69894        10.58947       -11.57834
   H       -8.29650         8.23949        -9.70212
   H       -9.34782         8.86736       -11.07390
*
