# ORCA input file
# SCF done       -191.932329670472          0.000341761219
! CAM-B3LYP def2-SVP def2/J RIJCOSX Grid4 TightSCF
%maxcore 5000
%tddft
    Mode sTDDFT
    Ethresh 5.0
    maxcore 5000
end

%pal
  nprocs 6
  end
* xyz 0 1
   C        0.60564        -0.43756        -8.33386
   N        0.84769         0.69866        -9.03450
   C        1.43471         0.77325       -10.34901
   C        2.93473         0.49406       -10.31140
   C        0.50629         1.84870        -8.28410
   O        0.63775         2.98146        -8.70763
   C        0.01406         1.31869        -7.03636
   C        0.09388        -0.10465        -7.10794
   C       -0.41143        -0.64636        -5.85992
   O       -0.54454        -1.77959        -5.45900
   N       -0.77124         0.49378        -5.11611
   C       -1.28606         0.37348        -3.77275
   C       -0.21701         0.66618        -2.72308
   C       -0.52440         1.66517        -5.79728
   C       -0.81499         2.94551        -5.27608
   C       -0.57037         4.09960        -5.96158
   C       -0.86817         5.38877        -5.46484
   C       -1.43680         5.74789        -4.25449
   C       -1.58767         7.15491        -4.20749
   C       -1.03524         7.67455        -5.47357
   C       -0.60897         6.61541        -6.20850
   C       -0.87081         9.02032        -5.82549
   N       -0.67132        10.10852        -6.13319
   C       -2.16164         7.89983        -3.19399
   C       -2.48562         9.27736        -3.20584
   C       -3.02720         9.63292        -1.97900
   C       -3.05396         8.44050        -1.14959
   C       -2.56470         7.39558        -1.87220
   C       -2.45355         6.08515        -1.39902
   N       -2.37839         5.01684        -0.98070
   C       -3.49123        10.93910        -1.68061
   N       -3.70670        11.48862        -0.43789
   C       -3.48580        10.89143         0.85769
   C       -4.75898        10.24723         1.40258
   C       -4.15818        12.81624        -0.52076
   O       -4.39339        13.50507         0.45472
   C       -4.23669        13.08448        -1.93703
   C       -3.80947        11.92504        -2.62128
   C       -3.93790        12.17381        -4.04430
   O       -3.73200        11.48587        -5.01839
   N       -4.40848        13.50314        -4.11946
   C       -4.69449        14.12030        -5.39353
   C       -6.18939        14.13093        -5.70387
   C       -4.59967        14.05152        -2.87999
   C       -5.08844        15.36507        -2.67307
   C       -5.30768        15.86495        -1.42939
   C       -5.84250        17.14239        -1.11954
   S       -5.84152        17.65669         0.55504
   C       -6.59478        19.17804         0.18427
   C       -6.83996        19.26085        -1.19594
   C       -6.41300        18.11832        -1.90895
   N       -6.56868        17.97200        -3.34962
   O       -7.50412        17.31120        -3.72486
   O       -5.69680        18.44331        -4.03557
   N       -7.48557        20.32683        -1.86054
   O       -7.77332        21.33250        -1.23530
   O       -7.72565        20.16329        -3.04396
   C       -6.90004        20.13210         1.17308
   C       -6.63549        19.96071         2.49924
   C       -6.93187        20.89383         3.51218
   N       -7.53811        22.10740         3.27359
   C       -7.69431        22.77567         4.42617
   C       -7.18618        22.00728         5.47165
   C       -6.70113        20.81255         4.89292
   C       -6.06661        19.68807         5.62963
   C       -7.15084        22.33937         6.87209
   C       -7.63313        23.46650         7.41907
   C       -7.57393        23.74723         8.82897
   C       -8.05339        24.85938         9.38203
   H        0.80515        -1.40481        -8.75665
   H        1.25223         1.78832       -10.71172
   H        0.93068         0.06000       -11.00799
   H        3.43529         1.22130        -9.67686
   H        3.34776         0.56365       -11.31367
   H        3.13087        -0.50220        -9.92106
   H       -1.62398        -0.66188        -3.67300
   H       -2.14586         1.03745        -3.64768
   H        0.60802        -0.03428        -2.82761
   H       -0.64140         0.55917        -1.72893
   H        0.17039         1.67699        -2.82901
   H       -1.25788         2.99762        -4.29253
   H       -0.12740         4.04411        -6.94737
   H       -1.75336         5.08236        -3.47648
   H       -0.14596         6.64777        -7.17729
   H       -2.34824         9.93268        -4.04282
   H       -3.44010         8.36440        -0.15193
   H       -3.18680        11.70443         1.52672
   H       -2.66510        10.17514         0.78793
   H       -5.51363        11.01286         1.56409
   H       -4.55122         9.75757         2.35019
   H       -5.16058         9.51426         0.70593
   H       -4.16904        13.51849        -6.14027
   H       -4.28707        15.13485        -5.40946
   H       -6.57747        13.11520        -5.69919
   H       -6.35138        14.55994        -6.68846
   H       -6.74512        14.71899        -4.97683
   H       -5.27124        15.95082        -3.55854
   H       -5.06246        15.25077        -0.57158
   H       -7.36781        21.03570         0.81328
   H       -6.16036        19.04125         2.81443
   H       -7.81764        22.43624         2.36379
   H       -8.14801        23.74652         4.45295
   H       -5.17542        20.03461         6.15248
   H       -5.78107        18.88500         4.95713
   H       -6.75485        19.28799         6.37387
   H       -6.69371        21.59973         7.51577
   H       -8.09708        24.22085         6.79888
   H       -7.10764        22.99203         9.44903
   H       -8.52212        25.62708         8.78838
   H       -7.99462        25.04163        10.44082
*
