# ORCA input file
# SCF done       -171.652341604537          0.000303887473
! CAM-B3LYP def2-SVP def2/J RIJCOSX Grid4 TightSCF
%maxcore 5000
%tddft
    Mode sTDDFT
    Ethresh 5.0
    maxcore 5000
end

%pal
  nprocs 6
  end
* xyz 0 1
   C       -3.14786        -1.68223        -4.76370
   S       -3.62023        -2.47825        -3.32322
   C       -2.12509        -3.38273        -3.25216
   C       -1.31664        -3.04963        -4.33635
   C       -1.91319        -2.07264        -5.18429
   N       -1.26023        -1.41360        -6.28816
   O       -1.95402        -1.12280        -7.23400
   O       -0.09355        -1.14107        -6.14551
   N       -0.11291        -3.72715        -4.67836
   O        0.54740        -4.22089        -3.78552
   O        0.14909        -3.80100        -5.86092
   C       -1.86603        -4.32428        -2.23297
   C       -2.73068        -4.62216        -1.22757
   C       -2.44886        -5.55165        -0.20483
   S       -0.93870        -6.42456        -0.16170
   C       -1.39372        -7.22736         1.30442
   C       -2.65426        -6.82222         1.73785
   C       -3.25043        -5.89440         0.87986
   C       -4.61404        -5.32473         1.11970
   C       -5.38754        -6.15817         2.14690
   C       -6.66568        -5.41351         2.51788
   F       -7.32630        -4.99555         1.42328
   F       -7.53096        -6.15733         3.21125
   F       -6.41757        -4.31402         3.24704
   C       -4.49645        -6.40246         3.37641
   C       -5.21644        -7.02124         4.46981
   N       -5.75595        -7.52573         5.34006
   C       -3.31769        -7.30925         2.98697
   C       -0.49766        -8.16219         1.87955
   S       -0.82498        -9.10314         3.30257
   C        0.72649        -9.88894         3.21152
   C        1.47443        -9.40963         2.15549
   C        0.76864        -8.44593         1.38083
   O        1.15504        -7.80040         0.26307
   C        2.46232        -7.94586        -0.25338
   O        2.75129        -9.74997         1.81812
   C        3.62985       -10.18926         2.83449
   C        1.03398       -10.85321         4.23964
   S        0.83360       -10.34074         5.89091
   C        1.25624       -11.91338         6.48439
   C        1.58609       -12.76893         5.45393
   C        1.41249       -12.17722         4.16639
   O        1.60425       -12.91691         3.03535
   C        0.83546       -12.61013         1.88979
   O        2.00707       -14.01734         5.77155
   C        2.06139       -15.01461         4.77349
   C        1.33800       -12.20022         7.88414
   S        2.72634       -13.01389         8.51014
   C        2.18607       -12.87997        10.14715
   C        0.96664       -12.20358        10.20954
   C        0.46427       -11.85602         8.90935
   C       -0.84403       -11.29674         8.80805
   C       -1.51937       -11.18027         7.57495
   N       -2.14308       -11.13272         6.61232
   C       -1.52731       -10.96327         9.95578
   C       -0.95551       -11.16897        11.22258
   C        0.25054       -11.79558        11.35686
   C        3.00192       -13.46764        11.17513
   C        2.59478       -13.89769        12.36840
   H       -3.77766        -0.94258        -5.21685
   H       -0.90245        -4.81427        -2.26797
   H       -3.68634        -4.11399        -1.18562
   H       -5.17416        -5.28758         0.18291
   H       -4.52046        -4.29675         1.48824
   H       -5.69004        -7.11748         1.71351
   H       -4.11663        -5.43579         3.73128
   H       -3.67362        -8.33501         2.84469
   H       -2.60120        -7.33397         3.81108
   H        2.47755        -7.33245        -1.15300
   H        2.67796        -8.98519        -0.50661
   H        3.21068        -7.58121         0.45316
   H        3.49976       -11.25202         3.04781
   H        3.49475        -9.61506         3.75378
   H        4.63256       -10.02401         2.44168
   H        0.81660       -13.52398         1.29652
   H        1.29246       -11.81196         1.30064
   H       -0.18406       -12.32572         2.15946
   H        2.37491       -15.91814         5.29447
   H        2.78660       -14.76601         3.99620
   H        1.08185       -15.17684         4.31743
   H       -2.51850       -10.54194         9.87702
   H       -1.50017       -10.84777        12.09725
   H        0.67391       -11.96344        12.33335
   H        4.03970       -13.60171        10.89483
   H        1.56678       -13.86098        12.68126
   H        3.29147       -14.33099        13.06442
*
