# ORCA input file
# SCF done       -129.381256781937          0.000531654982
! CAM-B3LYP def2-SVP def2/J RIJCOSX Grid4 TightSCF
%maxcore 5000
%tddft
    Mode sTDDFT
    Ethresh 5.0
    maxcore 5000
end

%pal
  nprocs 6
  end
* xyz 0 1
   C       -4.52469         7.93788        -8.73231
   S       -3.16428         7.31955        -7.86772
   C       -3.71717         7.94307        -6.33889
   C       -4.92377         8.60863        -6.51487
   C       -5.36440         8.59536        -7.87734
   N       -6.54084         9.27900        -7.89418
   N       -6.86567         9.71526        -6.66145
   C       -5.93131         9.33460        -5.83077
   C       -2.99547         7.76176        -5.13700
   O       -3.50456         8.24948        -3.98599
   C       -2.63502         7.95686        -2.98043
   C       -1.55019         7.27208        -3.48946
   C       -1.77238         7.13955        -4.87788
   C       -0.93284         6.51330        -5.80463
   N       -0.22923         5.99195        -6.54688
   C       -2.91820         8.35135        -1.64530
   C       -4.05123         9.00385        -1.28036
   C       -4.37296         9.41891         0.03211
   C       -5.52921        10.06855         0.39816
   C       -5.47688        10.31943         1.78435
   N       -6.20050        10.88533         2.77803
   C       -5.49344        10.77983         3.95599
   C       -4.28365        10.11828         3.68319
   C       -4.27835         9.83317         2.32926
   C       -3.47765         9.21038         1.23939
   C       -6.01145        11.30342         5.16608
   C       -5.37600        11.27867         6.36661
   C       -5.89127        11.82014         7.56840
   C       -5.24255        11.82896         8.78046
   C       -6.07486        12.47014         9.72488
   N       -6.09903        12.83407        11.02624
   C       -7.29758        13.46704        11.28436
   C       -8.04417        13.49780        10.09661
   C       -7.27642        12.87717         9.12655
   C       -7.24871        12.48879         7.68954
   C       -7.59453        13.97852        12.57487
   C       -8.77229        14.54354        12.92340
   C       -9.09886        15.05951        14.22486
   C      -10.43255        15.02524        14.66077
   C      -11.64941        14.58215        13.95711
   O      -11.78594        14.16402        12.83887
   O      -12.70263        14.72917        14.80423
   C      -12.28968        15.24462        16.05777
   C      -10.81152        15.43248        15.93446
   C       -9.88193        15.91144        16.83476
   C       -8.56723        16.00358        16.40543
   C       -8.15935        15.60457        15.13283
   C       -6.77917        15.85554        14.72109
   C       -5.71628        15.76049        15.50937
   H       -4.60382         7.77453        -9.78674
   H       -7.14589         9.47930        -8.67110
   H       -5.98998         9.57823        -4.79000
   H       -0.70364         6.90894        -2.94355
   H       -2.16368         8.09361        -0.91764
   H       -4.77828         9.23127        -2.04911
   H       -6.33128        10.33689        -0.26598
   H       -7.10418        11.32051         2.69430
   H       -3.52595         9.88944         4.40571
   H       -3.29414         8.14915         1.41584
   H       -2.51112         9.69854         1.10384
   H       -6.99005        11.76211         5.09904
   H       -4.39706        10.82390         6.42932
   H       -4.26687        11.41855         8.96981
   H       -5.38165        12.67261        11.71364
   H       -9.02124        13.92479         9.99181
   H       -7.32460        13.35375         7.02830
   H       -8.05371        11.79792         7.43335
   H       -6.81527        13.86211        13.31896
   H       -9.58444        14.54290        12.21188
   H      -12.56041        14.52813        16.84183
   H      -12.82167        16.18416        16.24601
   H      -10.16749        16.22398        17.82707
   H       -7.82875        16.42731        17.06971
   H       -6.65857        16.16054        13.68858
   H       -5.78741        15.42290        16.53008
   H       -4.72737        15.99542        15.15415
*
