# ORCA input file
# SCF done       -148.802130397338          0.000423734642
! CAM-B3LYP def2-SVP def2/J RIJCOSX Grid4 TightSCF
%maxcore 5000
%tddft
    Mode sTDDFT
    Ethresh 5.0
    maxcore 5000
end

%pal
  nprocs 6
  end
* xyz 0 1
   C       -5.45814        -2.81462        -2.97549
   C       -4.62796        -2.41951        -1.89377
   C       -3.57288        -1.56099        -2.13190
   C       -3.33167        -1.08240        -3.43019
   C       -4.17289        -1.48464        -4.50577
   C       -5.24240        -2.36639        -4.24308
   N       -3.95980        -1.03262        -5.75761
   C       -2.95526        -0.21646        -5.93312
   C       -2.11971         0.18372        -4.86859
   N       -2.29970        -0.23623        -3.64670
   C       -4.91691        -2.91511        -0.56670
   S       -6.28822        -3.95430        -0.29579
   C       -5.97041        -4.07380         1.39661
   C       -4.85848        -3.32218         1.73681
   C       -4.25499        -2.67430         0.62442
   O       -3.16108        -1.89542         0.73320
   C       -4.41160        -3.09657         3.04888
   N       -4.03478        -2.80192         4.09239
   C       -6.83705        -4.79626         2.27018
   S       -8.54844        -4.78689         1.96807
   C       -8.86182        -5.70821         3.40330
   C       -7.69648        -5.99168         4.08859
   C       -6.53301        -5.50870         3.41644
   C       -5.18490        -5.95057         3.79620
   O       -4.18404        -5.67845         3.17108
   C       -5.17146        -6.87554         4.98977
   C       -6.22896        -6.50608         6.02348
   C       -7.62216        -6.55332         5.44130
   O       -8.57606        -6.95841         6.07120
   C      -10.21127        -6.05320         3.73463
   S      -11.49230        -4.89829         3.53267
   C      -12.66766        -5.99948         4.17037
   C      -12.08782        -7.21095         4.50830
   C      -10.68843        -7.23666         4.24369
   C       -9.87211        -8.44981         4.44073
   O       -8.88053        -8.70632         3.80081
   C      -10.48192        -9.35861         5.47602
   C      -11.93487        -9.64950         5.10579
   C      -12.80381        -8.41679         4.95123
   O      -13.99884        -8.46607         5.14059
   C      -14.04316        -5.54120         4.24543
   C      -14.84350        -5.80025         5.35857
   C      -16.15373        -5.34779         5.42711
   C      -16.66608        -4.61979         4.37058
   C      -15.85352        -4.33388         3.25599
   C      -14.55567        -4.77769         3.18534
   C      -16.62608        -3.52779         2.27154
   O      -16.24720        -3.10012         1.20715
   C      -17.96397        -3.36743         2.89901
   C      -17.97765        -4.02138         4.14714
   C      -19.12562        -4.00630         4.91400
   C      -20.24073        -3.33947         4.42496
   C      -20.24063        -2.68598         3.18994
   C      -19.06925        -2.70670         2.41769
   C      -21.45523        -2.01113         2.75314
   C      -21.62610        -1.34830         1.61453
   H       -6.28013        -3.48797        -2.77685
   H       -2.91776        -1.23535        -1.34244
   H       -5.87256        -2.66508        -5.06598
   H       -2.79120         0.14252        -6.94041
   H       -1.29207         0.86125        -5.03214
   H       -2.84243        -1.89913         1.64703
   H       -5.36279        -7.88637         4.61542
   H       -4.17244        -6.86405         5.42786
   H       -6.05327        -5.48610         6.37974
   H       -6.18583        -7.17528         6.88399
   H      -10.43017        -8.84524         6.43865
   H       -9.90725       -10.28335         5.53778
   H      -12.40167       -10.30115         5.84694
   H      -11.96664       -10.17644         4.14595
   H      -14.43225        -6.35405         6.18648
   H      -16.75313        -5.56392         6.29792
   H      -13.94834        -4.55547         2.31987
   H      -19.16307        -4.50073         5.87301
   H      -21.14340        -3.32414         5.01966
   H      -19.02081        -2.21710         1.45812
   H      -22.28199        -2.07675         3.45015
   H      -20.85013        -1.24299         0.87618
   H      -22.56616        -0.88048         1.37805
*
