# ORCA input file
# SCF done       -108.463709108886          0.000566462279
! CAM-B3LYP def2-SVP def2/J RIJCOSX Grid4 TightSCF
%maxcore 5000
%tddft
    Mode sTDDFT
    Ethresh 5.0
    maxcore 5000
end

%pal
  nprocs 6
  end
* xyz 0 1
   C       -2.46287         1.34965        -1.36030
   S       -3.07463        -0.22838        -1.51800
   C       -2.40793        -0.81915        -0.00984
   C       -1.68290         0.10110         0.73124
   S       -1.54876         1.70989         0.03396
   C       -1.03576        -0.14600         2.01125
   O       -1.07352        -1.22515         2.58067
   C       -0.30285         1.03726         2.59440
   C       -2.63601        -2.16833         0.36446
   C       -3.36219        -3.04482        -0.36733
   C       -3.61390        -4.41517        -0.01820
   N       -4.39313        -5.08103        -0.88180
   N       -4.71331        -6.30993        -0.68739
   C       -4.27428        -6.98389         0.37612
   C       -3.42859        -6.37576         1.32031
   C       -3.09621        -5.05889         1.12493
   C       -4.70785        -8.37465         0.48145
   C       -5.06673        -9.07130        -0.66924
   C       -5.45486       -10.40329        -0.56879
   C       -5.51152       -10.96412         0.71152
   N       -5.20901       -10.29970         1.80711
   C       -4.81031        -9.04646         1.70174
   C       -5.81017       -11.17417        -1.74491
   S       -7.26486       -12.10285        -1.76418
   C       -7.02600       -12.61291        -3.39623
   C       -5.86123       -12.07283        -3.91534
   C       -5.14647       -11.26888        -2.95752
   C       -3.86916       -10.74400        -3.31404
   C       -3.02323       -10.11796        -2.37435
   N       -2.26773        -9.64773        -1.64923
   C       -3.39779       -10.91493        -4.59952
   C       -4.15358       -11.58836        -5.56591
   C       -5.36181       -12.17248        -5.24616
   C       -6.09835       -12.79165        -6.27632
   N       -6.65459       -13.23876        -7.17552
   C       -7.96601       -13.53311        -3.99948
   C       -9.34769       -13.42271        -3.93067
   C      -10.05516       -14.57164        -4.60250
   C       -8.88505       -15.38454        -5.03122
   C       -7.68178       -14.72542        -4.67885
   C       -6.86705       -15.88736        -5.23241
   C       -8.24339       -16.47509        -5.55040
   H       -2.64472         2.09235        -2.10760
   H       -0.98335         1.87675         2.72771
   H        0.49673         1.34950         1.92416
   H        0.12051         0.75708         3.55510
   H       -2.18221        -2.45716         1.30107
   H       -3.81861        -2.73465        -1.29919
   H       -3.03801        -6.93674         2.15531
   H       -2.45021        -4.53593         1.81258
   H       -5.05200        -8.55668        -1.61786
   H       -5.81074       -11.99571         0.84800
   H       -4.59272        -8.55233         2.63899
   H       -2.43031       -10.51604        -4.86550
   H       -3.77987       -11.66121        -6.57630
   H       -9.87319       -12.60505        -3.47236
   H      -10.66137       -14.22718        -5.44401
   H      -10.72003       -15.09852        -3.91375
   H       -6.28131       -16.43370        -4.49347
   H       -6.24995       -15.64899        -6.09649
   H       -8.54448       -17.39550        -6.00965
*
