# ORCA input file
# SCF done       -151.789271401597          0.000306418621
! CAM-B3LYP def2-SVP def2/J RIJCOSX Grid4 TightSCF
%maxcore 5000
%tddft
    Mode sTDDFT
    Ethresh 5.0
    maxcore 5000
end

%pal
  nprocs 6
  end
* xyz 0 1
   C       -0.69949         0.75631         0.72753
   S       -1.26151        -0.67130         1.48017
   C       -0.75763        -1.69038         0.16904
   C       -0.16705        -0.90981        -0.82421
   C       -0.13726         0.48771        -0.49647
   N        0.40410         1.40161        -1.34624
   C        0.88503         0.93032        -2.46080
   O        1.43901         1.74682        -3.35747
   C        1.46574         3.13049        -3.01835
   C        2.14136         3.88094        -4.15118
   C        0.85548        -0.47574        -2.80137
   C        1.42601        -0.94562        -4.11283
   N        1.33556        -2.37097        -4.34262
   N        0.34207        -1.35727        -1.99661
   C       -0.96965        -3.09220         0.22614
   C       -0.59917        -3.95622        -0.74394
   C       -0.81859        -5.37241        -0.65500
   C       -0.40164        -6.24482        -1.67516
   N       -0.59247        -7.54249        -1.62609
   C       -1.20571        -8.03957        -0.54312
   C       -1.62009        -7.17032         0.48406
   N       -1.43501        -5.87530         0.42982
   C       -1.40712        -9.45859        -0.46089
   S       -2.28977       -10.17022         0.85336
   C       -2.02144       -11.76712         0.23924
   C       -1.29494       -11.74268        -0.93634
   C       -0.93169       -10.42727        -1.33123
   O       -0.17597       -10.10899        -2.41137
   C        0.82372       -11.05212        -2.74942
   C        0.29726       -12.20899        -3.60569
   C       -1.02988       -12.73038        -3.04769
   O       -1.02002       -12.88313        -1.63714
   C       -2.57887       -12.86817         0.96744
   C       -2.33668       -14.21978         0.67117
   N       -2.88738       -15.18796         1.36454
   C       -3.69597       -14.85753         2.38385
   C       -3.92093       -13.50318         2.69375
   N       -3.37306       -12.53805         1.99889
   C       -4.28680       -15.93200         3.11480
   S       -3.88996       -17.56494         2.69092
   C       -4.90991       -18.23512         3.91450
   C       -5.54052       -17.21663         4.62458
   C       -5.18640       -15.90685         4.17400
   N       -5.71531       -14.80296         4.75617
   C       -6.55156       -15.00808         5.73668
   O       -7.11215       -13.98467         6.38180
   C       -6.76721       -12.67068         5.94886
   C       -7.49398       -12.27522         4.67096
   C       -6.91238       -16.33121         6.19551
   C       -7.88592       -16.49234         7.33231
   N       -8.15801       -17.86015         7.71542
   N       -6.41233       -17.39697         5.64583
   C       -5.06683       -19.63787         4.14754
   C       -4.45760       -20.60053         3.45646
   H       -0.80571         1.70635         1.20956
   H        2.00847         3.25484        -2.07436
   H        0.43806         3.47823        -2.86287
   H        3.15425         3.51337        -4.29164
   H        2.17641         4.94097        -3.91794
   H        1.58978         3.73768        -5.07637
   H        2.47852        -0.64545        -4.16203
   H        0.90808        -0.42293        -4.92451
   H        1.81603        -2.86369        -3.59601
   H        0.36225        -2.65768        -4.30293
   H       -1.45733        -3.48023         1.10992
   H       -0.11000        -3.58795        -1.63283
   H        0.09867        -5.87223        -2.56003
   H       -2.11313        -7.55374         1.36841
   H        1.28273       -11.44912        -1.83475
   H        1.57814       -10.48696        -3.30177
   H        1.04658       -13.00095        -3.61023
   H        0.12880       -11.87792        -4.63045
   H       -1.24388       -13.72600        -3.44465
   H       -1.84452       -12.05485        -3.33588
   H       -1.68428       -14.51047        -0.13807
   H       -4.55598       -13.22107         3.51931
   H       -5.68374       -12.61491         5.80198
   H       -7.06158       -12.02476         6.77912
   H       -7.20103       -12.93152         3.85559
   H       -7.23482       -11.25359         4.40903
   H       -8.56980       -12.34501         4.81309
   H       -8.82879       -16.00910         7.05300
   H       -7.49688       -15.95111         8.20183
   H       -8.51959       -18.36874         6.91454
   H       -7.28940       -18.31565         7.97780
   H       -5.74329       -19.87304         4.95860
   H       -3.78420       -20.36863         2.64792
   H       -4.61553       -21.64061         3.67880
*
