# ORCA input file
# SCF done       -183.103100256637          0.000949626966
! CAM-B3LYP def2-SVP def2/J RIJCOSX Grid4 TightSCF
%maxcore 5000
%tddft
    Mode sTDDFT
    Ethresh 5.0
    maxcore 5000
end

%pal
  nprocs 6
  end
* xyz 0 1
   C       -0.72677         0.71399         2.45695
   S       -1.25149        -0.62711         3.36928
   C       -0.65145        -1.77810         2.21148
   C       -0.04293        -1.09767         1.14861
   C       -0.09999         0.32474         1.29298
   N        0.41891         1.15033         0.34802
   C        0.97454         0.56916        -0.67889
   O        1.49573         1.29415        -1.66214
   C        1.40248         2.71114        -1.52873
   C        1.98908         3.34111        -2.77814
   C        1.07846        -0.87165        -0.80992
   C        1.82541        -1.46317        -1.97511
   N        2.11249        -2.87302        -1.90272
   N        0.57715        -1.66471         0.08986
   C       -0.82861        -3.16288         2.39126
   C       -0.46776        -4.07374         1.44163
   C       -0.63765        -5.46042         1.55536
   C       -0.36686        -6.43525         0.61152
   C       -0.71346        -7.69165         1.17901
   C       -1.19880        -7.43920         2.51923
   O       -1.58564        -8.17333         3.38643
   O       -1.12976        -6.05840         2.68414
   C       -0.47227        -8.66172         0.22990
   O        0.02527        -8.06853        -0.90470
   C        0.10772        -6.67091        -0.72770
   O        0.51580        -5.95252        -1.59424
   C       -0.65586       -10.05084         0.28992
   S       -1.18953       -10.78695         1.76717
   C       -1.11605       -12.36835         1.03971
   C       -0.70051       -12.29919        -0.29262
   C       -0.45231       -10.99663        -0.71528
   C       -0.03507       -10.62685        -2.10670
   C       -0.91147        -9.51384        -2.63452
   O       -2.06244        -9.33698        -2.35734
   C       -0.25461        -8.66872        -3.76612
   F        1.05577        -8.47901        -3.59567
   F       -0.38705        -9.32963        -4.93888
   F       -0.83698        -7.48733        -3.91696
   C       -0.19479       -11.83053        -3.05830
   C        0.34846       -13.09124        -2.39500
   C       -0.51727       -13.47637        -1.19738
   C       -1.45598       -13.53493         1.76331
   C       -1.84915       -13.52627         3.06418
   C       -2.17390       -14.68200         3.82021
   C       -1.91027       -15.99170         3.50710
   C       -2.26922       -16.81717         4.62814
   C       -2.18589       -18.21550         4.64463
   N       -2.11585       -19.36152         4.64851
   C       -2.70848       -16.01802         5.65624
   C       -2.70753       -14.66230         5.19902
   C       -3.25658       -13.59732         5.87158
   C       -3.55166       -13.55525         7.32649
   C       -4.41364       -12.52176         7.54130
   C       -4.64818       -11.85880         6.27894
   C       -3.90151       -12.46103         5.29498
   C       -5.52992       -10.78179         6.12007
   N       -6.27682        -9.91675         6.01203
   C       -2.92322       -14.34125         8.33460
   S       -1.29638       -15.01805         8.16286
   C       -3.35200       -14.57896         9.61521
   N       -4.44871       -14.28857        10.39843
   C       -4.26860       -15.02162        11.64660
   O       -2.95864       -15.56730        11.64280
   C       -2.43697       -15.31948        10.40881
   C       -1.27947       -15.63103         9.78519
   H       -0.90316         1.71261         2.80188
   H        1.94831         3.01874        -0.62953
   H        0.35061         2.98680        -1.39480
   H        3.02681         3.04193        -2.89651
   H        1.93704         4.42294        -2.70066
   H        1.43404         3.01979        -3.65519
   H        2.77351        -0.91704        -2.06517
   H        1.25978        -1.25930        -2.89070
   H        2.51829        -3.10809        -1.00380
   H        1.28075        -3.44185        -2.01651
   H       -1.28853        -3.49836         3.31091
   H       -0.03106        -3.73084         0.51538
   H        1.00929       -10.29693        -2.10247
   H        0.33320       -11.63229        -3.99108
   H       -1.25359       -11.97051        -3.28721
   H        1.37454       -12.91661        -2.06586
   H        0.35826       -13.90766        -3.11787
   H       -0.05481       -14.30137        -0.65257
   H       -1.49732       -13.81687        -1.54582
   H       -1.40831       -14.46855         1.22186
   H       -1.89741       -12.57257         3.57155
   H       -1.47969       -16.37130         2.59998
   H       -3.11159       -16.36340         6.58776
   H       -4.80957       -12.19232         8.48288
   H       -3.92751       -12.20938         4.25308
   H       -5.37056       -14.25812         9.99310
   H       -4.99958       -15.83994        11.76311
   H       -4.36084       -14.33952        12.50385
   H       -0.43045       -16.17408        10.14262
*
