# ORCA input file
# SCF done       -142.060562741976          0.000710501172
! CAM-B3LYP def2-SVP def2/J RIJCOSX Grid4 TightSCF
%maxcore 5000
%tddft
    Mode sTDDFT
    Ethresh 5.0
    maxcore 5000
end

%pal
  nprocs 6
  end
* xyz 0 1
   C        1.30910        -0.36538        -2.93885
   S        0.32840        -1.66124        -3.42671
   C        0.40505        -2.43518        -1.87265
   C        1.21489        -1.68888        -1.00367
   C        1.72072        -0.49230        -1.62701
   C        2.54454         0.39935        -0.90767
   C        2.87676         0.11176         0.39011
   C        3.69515         0.99400         1.13355
   N        4.35377         1.72094         1.72526
   C        2.40948        -1.09517         1.00320
   C        2.78819        -1.38836         2.33308
   N        3.07774        -1.64747         3.41122
   C        1.60317        -1.97263         0.31823
   C       -0.33976        -3.63423        -1.72216
   C       -0.63135        -4.31598        -0.59187
   C       -1.41479        -5.51907        -0.61520
   C       -1.70797        -6.23269         0.56394
   N       -2.33411        -7.38037         0.54293
   C       -2.74191        -7.87320        -0.64126
   C       -2.56749        -7.09362        -1.79942
   N       -1.90157        -5.96586        -1.78261
   C       -3.38380        -9.14843        -0.55579
   S       -3.87531        -9.63213         1.02549
   C       -4.59896       -11.09640         0.45673
   C       -4.39530       -11.24343        -0.92604
   C       -3.70249       -10.12492        -1.50644
   C       -3.37360       -10.14794        -2.87401
   C       -3.73484       -11.22449        -3.64852
   C       -3.41025       -11.24370        -5.02467
   N       -3.14177       -11.23689        -6.13848
   C       -4.40910       -12.34160        -3.06917
   C       -4.73648       -13.45453        -3.87694
   N       -5.01713       -14.36338        -4.51596
   C       -4.71526       -12.35146        -1.72860
   C       -5.27972       -11.91448         1.39632
   C       -6.25304       -12.81931         1.14604
   C       -6.86597       -13.58730         2.19293
   C       -7.92474       -14.47476         1.93348
   N       -8.48842       -15.19975         2.86983
   C       -8.02473       -15.07903         4.12570
   C       -6.97130       -14.17886         4.38689
   N       -6.41050       -13.45722         3.45196
   C       -8.62311       -15.87261         5.15446
   S       -8.02635       -15.81091         6.77636
   C       -9.17773       -16.95817         7.35495
   C      -10.01281       -17.38145         6.31531
   C       -9.69764       -16.76450         5.05921
   C      -10.44882       -17.08165         3.91197
   C      -11.47974       -17.98332         4.00891
   C      -12.24749       -18.31030         2.86713
   N      -12.86669       -18.56771         1.93819
   C      -11.79528       -18.60233         5.26062
   C      -12.86288       -19.52697         5.32966
   N      -13.72407       -20.27858         5.40984
   C      -11.07337       -18.30466         6.38987
   C       -9.21150       -17.37245         8.72438
   C       -8.38376       -16.93306         9.67328
   H        1.54176         0.42886        -3.61995
   H        2.90848         1.29721        -1.38388
   H        1.29425        -2.88306         0.80392
   H       -0.75486        -4.03433        -2.63944
   H       -0.31308        -3.98775         0.38455
   H       -1.41523        -5.86272         1.53758
   H       -3.00390        -7.36459        -2.74987
   H       -2.81140        -9.34347        -3.31977
   H       -5.16878       -13.22832        -1.29629
   H       -5.02356       -11.75229         2.43577
   H       -6.64503       -12.97958         0.15310
   H       -8.32295       -14.59929         0.93470
   H       -6.58397       -14.04956         5.38997
   H      -10.20227       -16.61128         2.97391
   H      -11.32469       -18.77909         7.32615
   H       -9.97530       -18.09722         8.97101
   H       -7.60988       -16.21435         9.45922
   H       -8.45444       -17.28395        10.68677
*
