# ORCA input file
# SCF done       -176.076423495763          0.000991921597
! CAM-B3LYP def2-SVP def2/J RIJCOSX Grid4 TightSCF
%maxcore 5000
%tddft
    Mode sTDDFT
    Ethresh 5.0
    maxcore 5000
end

%pal
  nprocs 6
  end
* xyz 0 1
   C       -1.67828        -0.24662         0.81497
   C       -1.51694        -0.94572         1.98097
   C       -0.37666        -1.71952         2.28236
   N        0.52910        -2.36010         2.57594
   C       -2.49529        -1.03881         2.99443
   N       -3.26270        -1.18540         3.83509
   C       -0.76153        -0.23008        -0.31384
   C       -1.40048         0.41534        -1.40301
   C       -0.78579         0.59060        -2.62006
   C        0.51940         0.11246        -2.76732
   C        1.15014        -0.52713        -1.67200
   C        0.52803        -0.70914        -0.44249
   S        2.76048        -1.02678        -2.07859
   C        2.58068        -0.39119        -3.67677
   C        1.37346         0.17106        -3.90426
   C       -2.75312         0.84157        -1.00647
   O       -3.57379         1.37750        -1.72211
   C       -2.85376         0.52584         0.44374
   C       -3.72599         1.07708         1.33451
   C       -4.90042         1.81737         1.05423
   C       -5.74370         1.76626        -0.03247
   C       -6.80801         2.67153         0.03855
   S       -7.90053         2.89500        -1.30112
   C       -6.88581         2.27942        -2.68801
   C       -6.80413         3.42899         1.22387
   S       -5.43387         3.01091         2.21006
   C       -7.67838         4.45599         1.66272
   C       -7.27085         5.35897         2.67944
   C       -8.07114         6.49169         3.05891
   N       -7.60198         7.35054         3.96777
   C       -6.43186         7.15918         4.52689
   C       -5.66364         6.00042         4.19359
   N       -6.10213         5.15429         3.28942
   C       -4.42420         5.74821         4.83075
   N       -3.42724         5.56733         5.36479
   C       -5.97252         8.12127         5.46038
   N       -5.60809         8.89640         6.22076
   C       -9.33910         6.75966         2.49747
   C       -9.80234         5.79931         1.57204
   C       -8.98660         4.67195         1.16955
   N       -9.64429         3.87184         0.33543
   S      -11.10672         4.46619         0.05645
   N      -10.99934         5.77319         0.98763
   C      -10.03184         7.94968         2.83810
   C      -11.20558         8.44055         2.29360
   C      -11.55800         9.69834         2.78585
   S      -12.93786        10.64755         2.30776
   C      -13.73325         9.57561         1.07720
   C      -10.63094        10.19989         3.70682
   S       -9.35981         9.04328         4.00084
   C      -10.66897        11.43455         4.38487
   C       -9.61666        12.04907         4.99768
   C       -8.19079        11.80839         4.89980
   C       -7.50873        11.44556         3.76719
   C       -6.11243        11.28161         3.69707
   N       -4.98514        11.10379         3.56890
   C       -8.13687        11.23769         2.52178
   N       -8.60529        11.10198         1.48186
   C       -7.58705        12.30540         6.12613
   C       -8.55318        13.08132         6.82060
   C       -9.83657        13.03410         6.09243
   O      -10.86597        13.61352         6.35329
   C       -8.26069        13.72368         7.99964
   C       -6.96968        13.58039         8.51916
   C       -6.02504        12.78247         7.82782
   C       -6.31226        12.14122         6.62868
   S       -4.50926        12.73158         8.66753
   C       -5.13357        13.76411         9.90673
   C       -6.41916        14.13111         9.71059
   H       -1.29623         1.08469        -3.43228
   H        1.04973        -1.19440         0.36564
   H        3.40433        -0.47811        -4.35846
   H        1.08353         0.61763        -4.83806
   H       -3.47801         1.01528         2.38811
   H       -5.60984         1.06684        -0.83328
   H       -6.95402         1.19767        -2.74829
   H       -5.85444         2.59511        -2.57487
   H       -7.32047         2.72008        -3.57984
   H      -11.75052         7.88100         1.55734
   H      -14.61317        10.11511         0.74101
   H      -14.02630         8.63674         1.53687
   H      -13.05636         9.41385         0.24404
   H      -11.64122        11.90473         4.49707
   H       -9.00492        14.31708         8.50787
   H       -5.57494        11.52330         6.14297
   H       -4.48994        14.03649        10.72061
   H       -6.97247        14.76804        10.37684
*
