# ORCA input file
# SCF done       -184.103322452296          0.000831865717
! CAM-B3LYP def2-SVP def2/J RIJCOSX Grid4 TightSCF
%maxcore 5000
%tddft
    Mode sTDDFT
    Ethresh 5.0
    maxcore 5000
end

%pal
  nprocs 6
  end
* xyz 0 1
   C       -7.25619         5.75328         2.36764
   C       -6.03825         6.11441         2.88748
   C       -5.57546         7.44430         2.96448
   N       -5.13889         8.50221         3.05856
   C       -5.08495         5.23365         3.43849
   N       -4.25829         4.58877         3.90847
   C       -8.25350         6.67587         1.83353
   C       -9.40832         5.93707         1.47092
   C      -10.52474         6.52157         0.92459
   C      -10.50185         7.90506         0.72247
   C       -9.34677         8.63637         1.08852
   C       -8.21770         8.04384         1.64358
   S       -9.53952        10.32667         0.74624
   C      -11.13053        10.04556         0.12811
   C      -11.50759         8.74917         0.17315
   C       -9.18192         4.51466         1.76722
   O       -9.98680         3.60998         1.63514
   C       -7.80398         4.41548         2.26781
   C       -7.13886         3.24378         2.52723
   C       -7.57962         1.92134         2.39402
   C       -6.74202         0.82210         2.59953
   S       -5.07284         0.72159         3.01862
   C       -5.14271        -1.02738         2.90223
   C       -3.91370        -1.81764         3.16302
   C       -6.37386        -1.48482         2.56745
   C       -7.32755        -0.44489         2.39846
   C       -8.67465        -0.33025         2.01963
   S       -9.15437         1.34494         1.89952
   C       -9.64502        -1.33570         1.76444
   C      -10.82150        -1.02717         1.03237
   C      -11.87284        -1.97415         0.82021
   N      -12.98592        -1.58399         0.17410
   C      -13.08802        -0.37663        -0.28163
   C      -12.01485         0.53874        -0.13798
   N      -10.93972         0.20119         0.49761
   F      -12.07453         1.75184        -0.67113
   F      -14.22031        -0.03889        -0.89059
   C      -11.80165        -3.31501         1.26883
   C      -10.63475        -3.63212         2.00071
   C       -9.58387        -2.66572         2.25017
   N       -8.62663        -3.18570         3.01580
   S       -8.98162        -4.70845         3.37316
   N      -10.37784        -4.79869         2.58336
   C      -12.83720        -4.23581         0.98004
   C      -12.91386        -5.61307         1.16581
   S      -11.85265        -6.80303         1.83022
   C      -12.98897        -8.08094         1.41939
   C      -12.63941        -9.48660         1.73967
   C      -14.11576        -7.61623         0.82751
   C      -14.10242        -6.20765         0.67053
   C      -14.96724        -5.28230         0.08672
   S      -14.28743        -3.67518         0.19152
   C      -16.24471        -5.52805        -0.44683
   C      -16.99524        -4.69967        -1.23080
   C      -16.64790        -3.51953        -1.99266
   C      -15.47027        -3.30524        -2.66101
   C      -15.21982        -2.18749        -3.48042
   N      -14.95547        -1.29323        -4.14992
   C      -14.41114        -4.23593        -2.67384
   N      -13.55425        -4.99653        -2.75067
   C      -17.87311        -2.75213        -2.17507
   C      -18.97360        -3.55971        -1.78516
   C      -18.47415        -4.84928        -1.26944
   O      -19.11750        -5.80570        -0.89859
   C      -20.27248        -3.12216        -1.88231
   C      -20.49186        -1.82979        -2.37022
   C      -19.38412        -1.02799        -2.73713
   C      -18.06928        -1.47180        -2.65101
   S      -19.89566         0.53381        -3.29314
   C      -21.55358         0.10787        -3.04190
   C      -21.72424        -1.14288        -2.56152
   H      -11.38468         5.92765         0.65664
   H       -7.36232         8.64589         1.90052
   H      -11.69320        10.88260        -0.23714
   H      -12.46017         8.38630        -0.16805
   H       -6.10899         3.31834         2.85841
   H       -3.14147        -1.57574         2.43280
   H       -4.13311        -2.88074         3.10591
   H       -3.51589        -1.58927         4.15117
   H       -6.60277        -2.52614         2.45441
   H      -11.74981        -9.78940         1.18811
   H      -13.45923       -10.14998         1.47624
   H      -12.42163        -9.59302         2.80156
   H      -14.92746        -8.24292         0.50543
   H      -16.73689        -6.44001        -0.12352
   H      -21.09491        -3.75617        -1.58929
   H      -17.25100        -0.82787        -2.92915
   H      -22.30957         0.83310        -3.27253
   H      -22.68242        -1.57903        -2.34397
*
