# ORCA input file
# SCF done       -273.824012496797          0.000680711088
! CAM-B3LYP def2-SVP def2/J RIJCOSX Grid4 TightSCF
%maxcore 5000
%tddft
    Mode sTDDFT
    Ethresh 5.0
    maxcore 5000
end

%pal
  nprocs 6
  end
* xyz 0 1
   C      -15.21920         9.33034         5.04084
   C      -16.28844         8.76500         4.39791
   C      -17.62824         8.91347         4.81390
   N      -18.73522         8.99926         5.10569
   C      -16.20620         7.93121         3.26175
   N      -16.22496         7.23530         2.34862
   C      -15.28558        10.12120         6.26200
   C      -13.96646        10.39068         6.69881
   C      -13.69460        11.11950         7.83129
   C      -14.77793        11.60446         8.57060
   C      -16.09393        11.33443         8.12397
   C      -16.36833        10.59942         6.97788
   S      -17.28315        12.03305         9.18133
   C      -16.01432        12.66480        10.19712
   C      -14.76401        12.37169         9.76755
  Br      -16.46012        13.65387        11.72696
   C      -12.99594         9.78511         5.76350
   O      -11.79034         9.85279         5.85296
   C      -13.81657         9.17357         4.68367
   C      -13.36093         8.74810         3.47480
   C      -12.00435         8.49282         3.07629
   C      -11.03606         7.97415         3.94536
   C       -9.75298         7.74289         3.50671
   C       -9.37911         8.03155         2.19145
   C      -10.34860         8.53410         1.31717
   C      -11.64110         8.73008         1.74159
   C       -7.99365         7.86777         1.74338
   C       -7.46964         8.96081         0.90656
   C       -6.75517         8.69047        -0.25900
   C       -6.28459         9.72358        -1.04639
   C       -6.51954        11.04009        -0.68428
   C       -7.23865        11.31862         0.46616
   C       -7.71691        10.28795         1.25321
   C       -7.24059         6.79333         2.08420
   C       -5.79271         6.73328         1.83467
   C       -4.96762         7.81713         2.13143
   C       -3.60664         7.74187         1.90741
   C       -3.04803         6.58692         1.38399
   C       -3.85754         5.49972         1.09927
   C       -5.21848         5.56743         1.33021
   C       -7.82284         5.59654         2.70592
   C       -8.97960         5.01302         2.18851
   C       -9.50065         3.86667         2.74737
   C       -8.89392         3.28039         3.85918
   C       -7.74116         3.86777         4.38297
   C       -7.20185         4.99393         3.80027
   C       -9.45696         2.08353         4.47612
   C       -9.94172         1.00182         3.72778
   C      -10.52064        -0.16378         4.34886
   N      -11.00620        -1.16145         3.56600
   C      -10.90057        -1.06253         2.28715
   C      -10.27163         0.06201         1.67582
   N       -9.82471         1.04535         2.37546
   F      -10.12877         0.12161         0.35213
   F      -11.39541        -2.05026         1.54196
   C      -10.64494        -0.28364         5.74031
   C      -10.15816         0.79696         6.49319
   C       -9.55178         1.95422         5.87079
   N       -9.15153         2.84987         6.78237
   S       -9.48600         2.29143         8.24350
   N      -10.15795         0.90058         7.82838
   C      -11.26960        -1.43916         6.37596
   C      -12.16116        -1.25260         7.43410
   C      -12.80228        -2.32783         8.00731
   C      -12.55134        -3.62693         7.56421
   C      -11.61413        -3.81698         6.54911
   C      -10.99866        -2.73961         5.94838
   C      -13.25095        -4.76885         8.17093
   C      -12.40467        -5.90182         8.56750
   C      -12.79741        -7.21612         8.31631
   C      -11.97930        -8.27035         8.67275
   C      -10.75778        -8.03226         9.28236
   C      -10.35212        -6.73001         9.52275
   C      -11.16464        -5.67176         9.16218
   C      -14.59561        -4.74661         8.34399
   C      -15.32523        -5.74312         9.14265
   C      -14.84234        -6.16690        10.38002
   C      -15.55150        -7.08517        11.12990
   C      -16.75243        -7.59205        10.65963
   C      -17.24748        -7.16545         9.43836
   C      -16.54468        -6.24342         8.68570
   C      -15.43601        -3.72329         7.71285
   C      -15.24568        -3.36535         6.37610
   C      -16.07977        -2.45892         5.76588
   C      -17.16706        -1.91104         6.45608
   C      -17.33901        -2.24686         7.80485
   C      -16.48722        -3.13395         8.42002
   C      -18.05036        -1.00542         5.77275
   C      -19.37280        -0.79208         5.96952
   C      -20.38290        -1.49691         6.73836
   C      -20.40556        -2.83440         7.03147
   C      -21.46779        -3.46843         7.70906
   N      -22.29847        -4.02777         8.27001
   C      -19.42602        -3.76570         6.62722
   N      -18.71128        -4.59527         6.28297
   C      -21.50166        -0.57769         6.92227
   C      -21.29972         0.55981         6.09983
   C      -20.00315         0.43556         5.40626
   O      -19.52079         1.18652         4.59126
   C      -22.20711         1.58876         6.02557
   C      -23.36230         1.49736         6.80846
   C      -23.54797         0.36503         7.63796
   C      -22.63526        -0.68007         7.70676
   S      -25.03586         0.46413         8.52963
   C      -25.38501         2.00187         7.78426
   C      -24.43779         2.42167         6.91259
  Br      -26.96637         2.90596         8.22887
   H      -12.67732        11.30723         8.13736
   H      -17.38751        10.42728         6.67478
   H      -13.86763        12.68341        10.27188
   H      -14.09144         8.62319         2.68319
   H      -11.30240         7.72944         4.95998
   H       -9.01696         7.35493         4.19418
   H      -10.07694         8.75008         0.29388
   H      -12.38307         9.10674         1.05206
   H       -6.58112         7.66521        -0.55051
   H       -5.73433         9.50109        -1.94874
   H       -6.14767        11.84596        -1.29938
   H       -7.42872        12.34323         0.75067
   H       -8.27403        10.50651         2.15347
   H       -5.39801         8.71421         2.55132
   H       -2.97764         8.58759         2.14356
   H       -1.98470         6.53296         1.20365
   H       -3.42628         4.59504         0.69633
   H       -5.85017         4.72014         1.10386
   H       -9.45996         5.45869         1.32986
   H      -10.39484         3.42710         2.33574
   H       -7.25969         3.42014         5.23817
   H       -6.29873         5.43027         4.20259
   H      -12.36493        -0.25359         7.78606
   H      -13.50156        -2.16965         8.81534
   H      -11.39229        -4.82050         6.21534
   H      -10.28980        -2.90042         5.15212
   H      -13.74198        -7.40503         7.82851
   H      -12.29409        -9.28372         8.47148
   H      -10.12199        -8.85865         9.56350
   H       -9.39787        -6.53842         9.99161
   H      -10.84890        -4.65576         9.35372
   H      -13.91410        -5.76251        10.75668
   H      -15.16809        -7.40413        12.08817
   H      -17.30312        -8.31210        11.24662
   H      -18.18704        -7.54954         9.06967
   H      -16.93650        -5.91392         7.73396
   H      -14.44765        -3.82195         5.81133
   H      -15.93181        -2.20361         4.72719
   H      -18.13234        -1.78115         8.37264
   H      -16.62933        -3.38350         9.46174
   H      -17.59346        -0.36814         5.02098
   H      -22.03032         2.43805         5.38444
   H      -22.81627        -1.51928         8.35788
   H      -24.49183         3.34485         6.36507
*
