# ORCA input file
# SCF done       -203.784515816129          0.000803243066
! CAM-B3LYP def2-SVP def2/J RIJCOSX Grid4 TightSCF
%maxcore 5000
%tddft
    Mode sTDDFT
    Ethresh 5.0
    maxcore 5000
end

%pal
  nprocs 6
  end
* xyz 0 1
   C        0.89156         4.20217         1.95064
   C        1.39363         5.06315         2.89222
   C        2.76863         5.21329         3.16953
   N        3.87261         5.38268         3.43410
   C        0.61784         5.88018         3.74155
   N        0.05251         6.55439         4.47963
   C        1.67526         3.27135         1.14965
   C        0.78659         2.43384         0.43290
   C        1.22039         1.44152        -0.41220
   C        2.60046         1.27017        -0.56062
   C        3.48230         2.11644         0.15441
   C        3.04242         3.11724         1.01185
   S        5.14389         1.73987        -0.18443
   C        4.63951         0.46767        -1.26530
   C        3.29608         0.32995        -1.36851
  Br        5.93348        -0.55498        -2.15695
   C       -0.60698         2.81327         0.73441
   O       -1.60113         2.30043         0.26836
   C       -0.51113         3.98214         1.64380
   C       -1.51859         4.84143         1.98577
   C       -2.91205         4.69356         1.83616
   C       -3.70829         3.57250         1.63706
   C       -5.05887         3.89016         1.59988
   C       -5.30918         5.27149         1.76235
   S       -3.88354         6.16372         1.99966
   C       -6.70436         5.48885         1.67087
   C       -7.34096         4.25121         1.46560
   C       -6.33014         3.20515         1.42553
   C       -6.53932         1.86703         1.27312
   C       -5.49094         0.92076         1.29269
   N       -4.66173         0.13038         1.32643
   C       -7.83274         1.32550         1.10637
   N       -8.87893         0.87775         0.96784
   C       -8.72567         4.36543         1.36004
   C       -9.14773         5.67764         1.47205
   S       -7.81024         6.78874         1.72312
   C      -10.48904         6.16280         1.38810
   C      -10.80217         7.52163         1.40584
   N      -12.01373         8.03616         1.29768
   C      -13.08075         7.26063         1.17105
   C      -12.92582         5.84774         1.16153
   C      -11.60471         5.29283         1.26395
   N      -11.62836         3.96094         1.22961
   S      -13.14792         3.46429         1.08450
   N      -13.85792         4.90317         1.05691
   C      -14.34325         7.90638         1.02891
   C      -15.60104         7.34395         0.90841
   C      -16.58264         8.32172         0.76782
   C      -16.05481         9.63022         0.77740
   S      -14.36053         9.65510         0.96994
   C      -17.12310        10.54554         0.60354
   C      -18.32430         9.81569         0.49337
   C      -18.02242         8.39682         0.58717
   C      -18.91045         7.36630         0.48838
   C      -18.51555         6.01490         0.58215
   N      -18.19918         4.91626         0.66775
   C      -20.28675         7.60304         0.28597
   N      -21.40217         7.81476         0.12523
   C      -19.43178        10.62440         0.27887
   C      -19.09408        11.96920         0.21201
   S      -17.37029        12.22196         0.46421
   C      -19.92997        13.08998         0.01728
   C      -21.19643        13.14330        -0.48010
   C      -22.03184        12.20231        -1.19747
   C      -21.61632        11.22075        -2.05974
   C      -22.49397        10.43121        -2.83286
   N      -23.16387         9.76631        -3.48507
   C      -20.26625        10.95210        -2.35611
   N      -19.18076        10.71794        -2.64822
   C      -23.41026        12.66463        -1.06733
   C      -23.40389        13.97015        -0.51361
   C      -22.01600        14.35846        -0.20236
   O      -21.61418        15.41304         0.23096
   C      -24.55624        14.69072        -0.31208
   C      -25.77042        14.08965        -0.66013
   C      -25.76680        12.77715        -1.19233
   C      -24.60108        12.05125        -1.40514
   S      -27.37589        12.22252        -1.53599
   C      -28.02375        13.74163        -0.97617
   C      -27.08483        14.61955        -0.54926
  Br      -29.87691        14.02376        -1.00434
   H        0.51660         0.81813        -0.94096
   H        3.75316         3.73921         1.52977
   H        2.81367        -0.40293        -1.98905
   H       -1.22440         5.79473         2.41008
   H       -3.30446         2.58375         1.52549
   H       -9.41603         3.55631         1.20641
   H      -10.00965         8.25262         1.50458
   H      -15.76012         6.28097         0.92276
   H      -20.44457        10.27082         0.21499
   H      -19.54118        14.04234         0.36584
   H      -24.52286        15.68659         0.10089
   H      -24.64544        11.05121        -1.80367
   H      -27.30808        15.60045        -0.17128
*
