# ORCA input file
# SCF done       -160.388343428303          0.000549772854
! CAM-B3LYP def2-SVP def2/J RIJCOSX Grid4 TightSCF
%maxcore 5000
%tddft
    Mode sTDDFT
    Ethresh 5.0
    maxcore 5000
end

%pal
  nprocs 6
  end
* xyz 0 1
   C       -7.59144        -1.39479         1.99651
   C       -6.68189        -1.30104         3.02141
   C       -6.57398        -2.23943         4.06777
   N       -6.44281        -2.96473         4.94844
   C       -5.70566        -0.29300         3.16023
   N       -4.86374         0.46808         3.34050
   C       -8.52412        -2.49816         1.79772
   C       -9.18501        -2.30886         0.56086
   C      -10.12433        -3.18742         0.07952
   C      -10.42670        -4.30979         0.85794
   C       -9.76460        -4.48872         2.09547
   C       -8.81438        -3.59894         2.58179
   S      -10.29066        -5.93758         2.89804
   C      -11.37498        -6.28016         1.57617
   C      -11.34783        -5.35806         0.58503
  Br      -12.44155        -7.82211         1.63030
   C       -8.69802        -1.06714        -0.07691
   O       -9.07055        -0.63130        -1.14586
   C       -7.73202        -0.48053         0.88114
   C       -7.19921         0.78600         0.84875
   C       -7.16517         1.74495        -0.18331
   C       -7.23293         1.47870        -1.54105
   C       -7.13558         2.59513        -2.40109
   C       -6.96725         3.82299        -1.78549
  Si       -6.86498         3.58561         0.07076
   C       -6.84439         5.07340        -2.43781
   C       -6.96683         5.33968        -3.83417
   C       -6.69453         6.63682        -4.39501
   N       -6.81905         6.82330        -5.72304
   C       -7.17590         5.82029        -6.47700
   C       -7.45222         4.55617        -5.92823
   N       -7.35347         4.33722        -4.64605
   C       -6.29366         7.74298        -3.58961
   C       -6.27167         7.49171        -2.20069
   C       -6.53838         6.19986        -1.64234
   N       -6.43207         6.20268        -0.31294
   S       -6.04260         7.68110         0.18240
   N       -5.97821         8.38974        -1.25926
   C       -5.91068         9.03415        -4.02595
   C       -5.74466         9.43520        -5.33643
   C       -5.40189        10.79507        -5.52003
   C       -5.26966        11.55783        -4.38004
  Si       -5.53013        10.45825        -2.86948
   C       -4.91355        12.92521        -4.38514
   C       -5.21273        13.88838        -5.30604
   C       -6.15700        13.91623        -6.39929
   C       -7.34835        13.23774        -6.46390
   C       -8.26661        13.36405        -7.52411
   N       -9.03372        13.42260        -8.37665
   C       -7.81961        12.40353        -5.43150
   N       -8.27049        11.75667        -4.59663
   C       -5.74193        14.98585        -7.30186
   C       -4.71949        15.73970        -6.67149
   C       -4.41024        15.13605        -5.35789
   O       -3.63354        15.53785        -4.52117
   C       -4.14297        16.83707        -7.26262
   C       -4.58804        17.20087        -8.53844
   C       -5.60041        16.43433        -9.16333
   C       -6.19065        15.32878        -8.56249
   S       -5.98930        17.05287       -10.73961
   C       -4.80606        18.31803       -10.53944
   C       -4.15150        18.28028        -9.35470
  Br       -4.54505        19.56622       -11.91465
   H      -10.60902        -3.01584        -0.86882
   H       -8.34147        -3.77750         3.53284
   H      -11.95164        -5.41270        -0.30233
   H       -6.76824         1.13933         1.77892
   H       -7.31035         0.48414        -1.94809
   H       -7.17915         2.48162        -3.47160
   H       -7.94249         4.20335         0.83773
   H       -5.53041         3.79013         0.62584
   H       -7.27070         6.01760        -7.53619
   H       -7.77758         3.72533        -6.53944
   H       -5.86387         8.76757        -6.17352
   H       -5.20032        11.18212        -6.51032
   H       -6.62169        10.94717        -2.04279
   H       -4.24468        10.31276        -2.18557
   H       -4.27821        13.25968        -3.57022
   H       -3.37210        17.39831        -6.75838
   H       -6.95501        14.77058        -9.07759
   H       -3.39113        18.98293        -9.06651
*
