# ORCA input file
# SCF done       -217.462359460254          0.000599210167
! CAM-B3LYP def2-SVP def2/J RIJCOSX Grid4 TightSCF
%maxcore 5000
%tddft
    Mode sTDDFT
    Ethresh 5.0
    maxcore 5000
end

%pal
  nprocs 6
  end
* xyz 0 1
   C       -9.37330        -4.65394         4.97155
   C       -9.42895        -4.53624         6.33595
   C       -9.23011        -5.61072         7.22877
   N       -9.07608        -6.44275         8.00415
   C       -9.73416        -3.35221         7.04076
   N       -9.99905        -2.43741         7.68243
   C       -9.17599        -5.89551         4.23633
   C       -9.36463        -5.63863         2.85659
   C       -9.25335        -6.61631         1.89777
   C       -8.93640        -7.91087         2.32157
   C       -8.74375        -8.15782         3.70271
   C       -8.85964        -7.16927         4.67176
   S       -8.35159        -9.82261         4.00557
   C       -8.45107       -10.16090         2.29777
   C       -8.76231        -9.08379         1.53774
  Br       -8.13323       -11.90240         1.68062
   C       -9.67286        -4.21027         2.65401
   O       -9.88368        -3.67099         1.58966
   C       -9.59720        -3.59331         4.00225
   C       -9.55211        -2.26115         4.30260
   C       -9.83736        -1.13692         3.49978
   C      -10.51895        -0.99859         2.29716
   C      -10.61837         0.33010         1.90443
   C       -9.99761         1.22221         2.80635
   S       -9.32622         0.42814         4.14697
   C      -10.13781         2.54016         2.30643
   C      -10.85846         2.48766         1.10026
   C      -11.18886         1.09971         0.80966
   C      -11.89810         0.63322        -0.25647
   C      -12.20752        -0.73275        -0.43914
   N      -12.49142        -1.83069        -0.60329
   C      -12.39478         1.50164        -1.25274
   N      -12.79399         2.20856        -2.06227
   C      -11.05539         3.74764         0.54028
   C      -10.47874         4.75041         1.30318
   S       -9.68701         4.12804         2.74069
   C      -10.51155         6.14109         1.00625
   C       -9.82782         7.18278         1.62005
   C       -8.94149         6.97873         2.68879
   N       -8.21985         6.78410         3.55886
   C      -10.12251         8.44605         1.03590
   C      -11.03811         8.31902        -0.00316
   S      -11.53597         6.69987        -0.30062
   S      -11.48558         9.80114        -0.78174
   C      -10.41259        10.62429         0.30206
   C       -9.74571         9.81060         1.21123
   C       -8.87131        10.57000         2.03796
   C       -8.05132        10.03606         3.04364
   N       -7.37137         9.62643         3.87175
   C       -8.90158        11.92628         1.73916
   S      -10.01453        12.29208         0.43571
   C       -8.15759        12.99061         2.31860
   C       -8.27756        14.33089         1.98770
   C       -7.38299        15.12577         2.69940
   C       -6.57671        14.38080         3.57885
   S       -6.92530        12.71124         3.53830
   C       -5.68583        15.26744         4.23672
   C       -5.93131        16.57303         3.76646
   C       -7.01657        16.52938         2.80130
   C       -7.58330        17.59017         2.15880
   C       -8.64601        17.43201         1.24448
   N       -9.50442        17.29415         0.49734
   C       -7.13000        18.90852         2.37830
   N       -6.74473        19.97237         2.56355
   C       -5.10550        17.52340         4.35201
   C       -4.23148        16.96174         5.27230
   S       -4.43221        15.21682         5.38302
   C       -3.21608        17.58488         6.03094
   C       -3.03937        18.90467         6.31315
   C       -3.88775        20.07399         6.20913
   C       -5.25205        20.11461         6.33630
   C       -6.00153        21.30968         6.37424
   N       -6.65378        22.25239         6.41787
   C       -6.05579        18.97715         6.54389
   N       -6.74450        18.07822         6.73321
   C       -3.01362        21.24262         6.22599
   C       -1.70358        20.82884         6.57771
   C       -1.68353        19.36313         6.73646
   O       -0.76301        18.66108         7.08336
   C       -0.66148        21.71463         6.70919
   C       -0.92201        23.06801         6.47000
   C       -2.23002        23.46793         6.10209
   C       -3.28656        22.57386         5.97761
   S       -2.32397        25.18156         5.83883
   C       -0.63092        25.33834         6.22589
   C       -0.02352        24.16768         6.53455
  Br        0.17508        27.03036         6.18287
   H       -9.40650        -6.38829         0.85466
   H       -8.69837        -7.40581         5.71014
   H       -8.86448        -9.11316         0.46836
   H       -9.22830        -2.00154         5.30420
   H      -10.91041        -1.83680         1.75091
   H      -11.58141         3.94291        -0.37726
   H       -8.98328        14.69280         1.26109
   H       -5.09586        18.56651         4.09404
   H       -2.41827        16.93692         6.38208
   H        0.32408        21.37492         6.98614
   H       -4.26399        22.92037         5.68518
   H        1.01517        24.08130         6.79639
*
