# ORCA input file
# SCF done       -217.302365680756          0.000770658528
! CAM-B3LYP def2-SVP def2/J RIJCOSX Grid4 TightSCF
%maxcore 5000
%tddft
    Mode sTDDFT
    Ethresh 5.0
    maxcore 5000
end

%pal
  nprocs 6
  end
* xyz 0 1
   C       -5.53595         1.15546        -4.83548
   C       -5.67774         1.21565        -6.19367
   F       -5.66431         2.39883        -6.82018
   C       -5.83939         0.03800        -6.95100
   F       -5.97694         0.12672        -8.28041
   C       -5.85595        -1.18432        -6.33938
   C       -5.71126        -1.27893        -4.94179
   C       -5.54915        -0.08912        -4.17454
   C       -5.40385        -0.15866        -2.76955
   C       -5.41857        -1.38045        -2.15034
   C       -5.57801        -2.56253        -2.92652
   C       -5.72241        -2.52856        -4.28342
   C       -5.55459        -3.73043        -2.03196
   O       -5.66069        -4.89880        -2.36686
   C       -5.38003        -3.20741        -0.67407
   C       -5.29456        -1.76000        -0.74378
   C       -5.13076        -0.88225         0.29575
   C       -5.00921        -1.22676         1.65879
   N       -4.90398        -1.42075         2.78575
   C       -5.06067         0.51903         0.14151
   N       -4.99486         1.66356         0.08637
   C       -5.31567        -3.96700         0.46765
   C       -5.39478        -5.35592         0.64095
   C       -5.32297        -5.94136         1.91286
   C       -5.43393        -7.31612         1.87064
   C       -5.58803        -7.80053         0.54771
   S       -5.59820        -6.56718        -0.62625
   C       -5.70867        -9.20905         0.61300
   C       -5.63754        -9.61604         1.95874
   C       -5.45335        -8.44141         2.79377
   C       -5.32540        -8.40668         4.15054
   C       -5.35971        -9.57582         4.94105
   N       -5.38529       -10.51904         5.59213
   C       -5.14584        -7.19883         4.85864
   N       -4.99778        -6.22242         5.44052
   C       -5.77215       -10.99267         2.12082
   C       -5.94109       -11.64692         0.91395
   S       -5.92631       -10.52876        -0.44649
   C       -6.13758       -13.04740         0.69184
   C       -6.17877       -13.58990        -0.58535
   C       -6.40725       -14.93936        -0.82552
   C       -6.63049       -15.85707         0.19144
   C       -6.57677       -15.35591         1.52632
   C       -6.32288       -13.95621         1.77661
   N       -6.29685       -13.63783         3.06361
  Se       -6.57512       -15.06024         4.03513
   N       -6.73039       -16.07936         2.62714
   C       -6.91772       -17.23361        -0.07687
   C       -7.37529       -18.18973         0.81206
   C       -7.58164       -19.42236         0.19920
   C       -7.26570       -19.41619        -1.17206
   S       -6.73340       -17.88286        -1.70187
   C       -7.51303       -20.70656        -1.69687
   C       -7.99151       -21.53147        -0.65542
   C       -8.05193       -20.74811         0.56766
   C       -8.46723       -21.16284         1.79800
   C       -8.90381       -22.48398         2.03612
   N       -9.25447       -23.55645         2.23834
   C       -8.48729       -20.30284         2.91754
   N       -8.50880       -19.61292         3.83273
   C       -8.25533       -22.82733        -1.07480
   C       -8.01497       -23.00625        -2.43246
   S       -7.40042       -21.53131        -3.18021
   C       -8.13422       -24.23837        -3.10693
   C       -8.09944       -24.54456        -4.43449
   C       -7.76161       -25.94017        -4.83197
   O       -7.73935       -26.91172        -4.11361
   C       -7.40169       -25.85703        -6.26191
   C       -6.90520       -26.83159        -7.07822
   C       -6.60528       -26.51416        -8.42195
   C       -6.82160       -25.18612        -8.89235
   C       -6.51317       -24.87589       -10.23207
   C       -6.01714       -25.83861       -11.06573
   C       -5.80557       -27.15194       -10.59984
   C       -6.09336       -27.48405        -9.30570
   F       -5.31704       -28.07463       -11.43896
   F       -5.72558       -25.54146       -12.33857
   C       -7.34497       -24.19929        -8.02524
   C       -7.63713       -24.53262        -6.73019
   C       -8.22326       -23.75643        -5.63943
   C       -8.99810       -22.63629        -5.79800
   C       -9.81057       -22.11228        -4.77247
   N      -10.51667       -21.69720        -3.96788
   C       -9.14699       -21.95403        -7.02183
   N       -9.27884       -21.35365        -7.99109
   H       -5.41349         2.06660        -4.27092
   H       -5.98041        -2.07636        -6.93310
   H       -5.28429         0.76103        -2.22063
   H       -5.84254        -3.44193        -4.84595
   H       -5.18717        -3.43462         1.40237
   H       -5.19921        -5.35423         2.80582
   H       -5.75608       -11.51756         3.05748
   H       -6.03348       -12.93449        -1.43183
   H       -6.43111       -15.28358        -1.84939
   H       -7.54549       -17.97014         1.84925
   H       -8.62748       -23.61762        -0.44801
   H       -8.17487       -25.10479        -2.45147
   H       -6.74473       -27.83141        -6.70469
   H       -6.67304       -23.87691       -10.60661
   H       -5.92617       -28.49352        -8.96405
   H       -7.49370       -23.20065        -8.40440
*
