# ORCA input file
# SCF done       -201.106735477704          0.000688547416
! CAM-B3LYP def2-SVP def2/J RIJCOSX Grid4 TightSCF
%maxcore 5000
%tddft
    Mode sTDDFT
    Ethresh 5.0
    maxcore 5000
end

%pal
  nprocs 6
  end
* xyz 0 1
   C       -6.60367        -2.87949        -0.58122
   C       -7.68396        -2.03396        -0.77937
   C       -8.23693        -1.95215        -2.05784
   C       -9.33371        -1.08409        -2.28932
   N      -10.21297        -0.37553        -2.47562
   C       -7.72116        -2.71007        -3.12788
   C       -8.30224        -2.60076        -4.41469
   N       -8.75379        -2.52059        -5.46374
   C       -6.63448        -3.56102        -2.92403
   C       -6.09458        -3.63295        -1.65700
   C       -4.94638        -4.44786        -1.20400
   O       -4.22106        -5.11981        -1.89824
   C       -4.80270        -4.14527         0.24658
   C       -5.83545        -3.19134         0.62046
   C       -6.07824        -2.71373         1.87742
   C       -7.02893        -1.71080         2.17117
   N       -7.74321        -0.86426         2.46924
   C       -5.41891        -3.15412         3.04774
   N       -4.96445        -3.49111         4.04620
   C       -3.74644        -4.51264         1.01194
   C       -2.76964        -5.51338         0.69124
   C       -3.04465        -6.74563         0.12194
   C       -4.30719        -7.23666        -0.21448
   N       -5.35736        -7.63096        -0.45784
   S       -1.63370        -7.74297         0.01927
   C       -0.66607        -6.49227         0.75558
   O        0.64154        -6.77669         0.86364
   C        1.57348        -5.71134         0.82638
   C       -1.39817        -5.37894         1.07303
   C       -0.93216        -4.14594         1.72372
   C       -0.32452        -4.18852         2.97571
   C        0.02194        -2.99206         3.59562
   C        0.60455        -2.73667         4.87583
   C        1.08628        -3.76332         5.81116
   C        2.64891        -3.86414         5.65623
   N        3.27461        -4.87194         6.45029
   C        0.68496        -3.50178         7.27995
   N        0.29289        -4.75163         7.90214
   C        0.69148        -1.31820         5.02472
   C        1.12579        -0.52907         6.08423
   C        1.03062         0.86058         5.99141
   C        0.60030         1.44855         4.79916
   C        0.16814         0.67572         3.72592
   C        0.18289        -0.69592         3.84698
   C       -0.24722        -1.75088         2.95072
   C       -0.84658        -1.71736         1.71152
   C       -1.18984        -2.91952         1.10548
   C        1.33292         1.68781         7.15715
   C        0.95186         1.38094         8.39913
   C        0.10621         0.24657         8.76387
   C        0.46891        -0.64574         9.75123
   C        1.68480        -0.70189        10.42556
   N        2.70494        -0.78138        10.94881
   S       -0.74588        -1.86818        10.01573
   C       -1.73910        -1.15776         8.77899
   O       -2.94350        -1.65397         8.45943
   C       -3.31766        -2.88535         9.03582
   C       -1.16697        -0.04848         8.20670
   C       -1.83534         0.77640         7.13922
   C       -3.31085         0.62334         7.12949
   C       -3.97456        -0.01712         6.00380
   O       -3.46344        -0.39346         4.96126
   C       -5.40528        -0.11183         6.39699
   C       -6.46004        -0.67552         5.72165
   C       -7.72058        -0.66398         6.32907
   C       -7.88704        -0.06794         7.58944
   C       -6.80323         0.50740         8.26809
   C       -5.56203         0.47125         7.66978
   C       -4.23875         0.93586         8.12592
   C       -3.97518         1.55640         9.34596
   C       -2.69700         1.99599         9.71867
   N       -1.66822         2.37432        10.06864
   C       -4.94279         1.80053        10.33020
   N       -5.69602         2.00693        11.17457
   C       -9.16664        -0.05580         8.19446
   N      -10.19644        -0.04200         8.69563
   C       -8.81281        -1.28160         5.67579
   N       -9.67439        -1.81331         5.13991
   H       -8.10595        -1.43998         0.01593
   H       -6.22841        -4.15067        -3.73176
   H       -3.57591        -4.00191         1.95272
   H        1.63935        -5.20373         1.79237
   H        1.30952        -4.98198         0.05723
   H        2.53109        -6.17055         0.58735
   H       -0.16949        -5.13975         3.46440
   H        0.66334        -4.73574         5.53796
   H        3.08511        -2.89702         5.91627
   H        2.87042        -4.07272         4.60607
   H        2.92815        -5.80161         6.25103
   H        3.22241        -4.68351         7.44263
   H       -0.18867        -2.84582         7.28652
   H        1.50283        -2.98825         7.81167
   H        1.09460        -5.34754         8.07821
   H       -0.16423        -4.58397         8.79084
   H        1.53960        -0.96576         6.97777
   H       -1.54221         1.82108         7.28841
   H        0.56549         2.52571         4.73009
   H       -0.19255         1.15005         2.82622
   H       -1.06001        -0.78054         1.22073
   H       -1.66087        -2.91452         0.13284
   H        1.88287         2.60115         6.97797
   H        1.25673         2.00448         9.22824
   H       -3.34672        -2.81480        10.12822
   H       -2.62779        -3.68230         8.74080
   H       -4.31244        -3.10438         8.65402
   H       -1.48476         0.45869         6.15183
   H       -6.32262        -1.12487         4.75219
   H       -6.96782         0.95245         9.23689
*
