# ORCA input file
# SCF done       -243.166663165959          0.000555490042
! CAM-B3LYP def2-SVP def2/J RIJCOSX Grid4 TightSCF
%maxcore 5000
%tddft
    Mode sTDDFT
    Ethresh 5.0
    maxcore 5000
end

%pal
  nprocs 6
  end
* xyz 0 1
   C      -11.32141       -16.45497         5.21809
   C      -11.70389       -17.68724         5.71991
   C      -11.10675       -18.14067         6.89849
   C      -11.47722       -19.40250         7.42511
   N      -11.77774       -20.42449         7.84459
   C      -10.13912       -17.37021         7.57045
   C       -9.55155       -17.85367         8.76350
   N       -9.06043       -18.22492         9.72934
   C       -9.75332       -16.13006         7.05797
   C      -10.34894       -15.69483         5.89409
   C      -10.09963       -14.44029         5.15012
   O       -9.26813       -13.59742         5.43657
   C      -10.98165       -14.48712         3.97965
   C      -11.75019       -15.71360         4.03178
   C      -12.75346       -16.09802         3.18145
   C      -13.47638       -17.30360         3.30607
   N      -14.09170       -18.27146         3.34902
   C      -13.22296       -15.35581         2.07604
   N      -13.67084       -14.82277         1.16305
   C      -10.98452       -13.60940         2.92295
   C      -10.38476       -12.34685         2.76054
   S       -9.91207       -12.01580         1.10319
   C       -9.15496       -10.52699         1.54902
   C       -9.33273       -10.26987         2.90676
   C      -10.05934       -11.26010         3.58089
   C      -10.51577       -11.06553         5.00126
   C      -12.03230       -11.18967         5.11594
   F      -12.67037       -10.44883         4.19601
   F      -12.50833       -12.43761         4.98697
   F      -12.47221       -10.76674         6.31255
   C      -10.13570        -9.68225         5.55245
   C       -8.73833        -9.29245         5.09944
   C       -8.75652        -9.07082         3.59224
   C       -8.46098        -9.72641         0.60516
   C       -8.34492       -10.04767        -0.70508
   C       -7.62688        -9.32856        -1.71630
   C       -7.54399        -9.87973        -2.98011
   C       -6.79656        -9.25135        -3.99258
   C       -6.52176        -9.61662        -5.30453
   C       -7.00538       -10.80031        -6.07156
   C       -6.48612       -12.11900        -5.46414
   N       -6.44390       -13.13394        -6.49810
   C       -8.54083       -10.79066        -6.19089
   N       -8.98851       -11.81455        -7.12297
   C       -5.62571        -8.61402        -5.83319
   C       -4.99558        -8.52707        -7.01880
   C       -4.02834        -7.43540        -7.30878
   C       -3.93275        -6.38425        -6.24102
   C       -4.57948        -6.48211        -5.06663
   C       -5.40829        -7.59760        -4.79527
   C       -6.11690        -7.99689        -3.68253
   C       -6.25172        -7.43121        -2.39242
   C       -6.97730        -8.07609        -1.44721
   C       -4.25797        -6.76125        -8.63378
   C       -5.41471        -6.77651        -9.29388
   C       -5.64647        -6.17143       -10.58445
   S       -6.62577        -7.08178       -11.68480
   C       -6.30608        -5.96710       -12.98174
   C       -5.50979        -4.91870       -12.54122
   C       -5.16703        -5.01534       -11.17908
   C       -4.42710        -3.91173       -10.46238
   C       -5.29951        -3.32031        -9.35333
   F       -6.48111        -2.89377        -9.81477
   F       -5.56859        -4.16321        -8.34690
   F       -4.70149        -2.25905        -8.78402
   C       -4.04806        -2.74425       -11.39369
   C       -3.74098        -3.22444       -12.80361
   C       -5.00775        -3.81600       -13.41356
   C       -6.83543        -6.15804       -14.27591
   C       -7.69307        -7.15785       -14.62235
   C       -8.19674        -7.40703       -15.91512
   C       -8.23483        -6.63092       -17.04407
   C       -8.41473        -7.32087       -18.34786
   O       -8.73502        -8.47238       -18.52722
   C       -8.06423        -6.31310       -19.37651
   C       -7.94989        -6.47721       -20.73987
   C       -7.55985        -5.37583       -21.50482
   C       -7.29354        -4.14173       -20.88176
   C       -7.42643        -3.98390       -19.50048
   C       -7.81757        -5.07743       -18.74764
   C       -8.05966        -5.22364       -17.30927
   C       -8.30515        -4.17531       -16.45699
   C       -8.78052        -4.33260       -15.14072
   N       -9.17576        -4.41542       -14.06638
   C       -8.15949        -2.81826       -16.80786
   N       -8.02129        -1.69952       -17.02523
   C       -6.87472        -3.04022       -21.66842
   N       -6.52773        -2.14557       -22.29283
   C       -7.42139        -5.50268       -22.90776
   N       -7.31124        -5.62514       -24.04104
   H      -12.43899       -18.30736         5.23248
   H       -9.00899       -15.52985         7.55902
   H      -11.44543       -13.97463         2.01157
   H      -10.06655       -11.84779         5.62736
   H      -10.19765        -9.70598         6.64084
   H      -10.84979        -8.93746         5.19080
   H       -8.03662       -10.09007         5.34915
   H       -8.42023        -8.38185         5.60733
   H       -7.74353        -8.89120         3.22662
   H       -9.35816        -8.18768         3.35491
   H       -8.00979        -8.82626         0.99437
   H       -8.82294       -10.96278        -1.03682
   H       -8.03677       -10.81939        -3.17934
   H       -6.59614       -10.75356        -7.08560
   H       -7.11369       -12.39321        -4.60151
   H       -5.46486       -11.96555        -5.09785
   H       -7.38250       -13.25546        -6.87011
   H       -6.13130       -14.01943        -6.11530
   H       -8.85825        -9.77380        -6.48029
   H       -8.98967       -11.01083        -5.22004
   H       -8.68220       -11.58875        -8.06427
   H      -10.00150       -11.86461        -7.13107
   H       -5.12094        -9.27345        -7.79171
   H       -3.03771        -7.92067        -7.37401
   H       -3.30139        -5.53827        -6.46298
   H       -4.47105        -5.71355        -4.31573
   H       -5.76576        -6.49190        -2.17334
   H       -7.07651        -7.64396        -0.46420
   H       -3.40603        -6.22183        -9.02169
   H       -6.24206        -7.35593        -8.90620
   H       -3.52909        -4.30645        -9.97798
   H       -3.19337        -2.21540       -10.97050
   H       -4.88240        -2.04080       -11.44475
   H       -2.95356        -3.98079       -12.78105
   H       -3.39318        -2.38664       -13.40766
   H       -4.80307        -4.19189       -14.41765
   H       -5.77472        -3.03976       -13.49853
   H       -6.48050        -5.47358       -15.03390
   H       -7.96646        -7.87508       -13.85900
   H       -8.55634        -8.41849       -16.08487
   H       -8.15356        -7.43085       -21.20258
   H       -7.21089        -3.02440       -19.05739
*
