# ORCA input file
# SCF done       -219.190007128865          0.000407696549
! CAM-B3LYP def2-SVP def2/J RIJCOSX Grid4 TightSCF
%maxcore 5000
%tddft
    Mode sTDDFT
    Ethresh 5.0
    maxcore 5000
end

%pal
  nprocs 6
  end
* xyz 0 1
   C        1.71325         4.04254        -7.18447
   O        2.10661         3.16537        -6.25025
   C        2.39164         3.83504        -5.10982
   C        2.16939         5.18071        -5.32964
   C        1.73346         5.30616        -6.66839
   F        1.40515         6.43064        -7.30220
   F        2.33166         6.17309        -4.45093
   C        2.83098         3.09196        -3.96445
   C        3.14428         3.64742        -2.78247
   C        3.59114         2.94669        -1.59426
   C        3.40559         1.57472        -1.37258
   C        2.62988         0.65205        -2.25022
   O        3.13046        -0.18827        -2.95965
   C        1.15837         0.72936        -2.06275
   C        0.37345         1.84219        -2.06102
   S       -1.29175         1.46407        -1.89049
   C       -0.94000        -0.21624        -1.80536
   C        0.39296        -0.46987        -1.91003
   C        1.03839        -1.79212        -1.69372
   O        1.92337        -1.90648        -0.87161
   C        0.52028        -2.92774        -2.48373
   C        0.81307        -4.22265        -2.05558
   C        0.35537        -5.31304        -2.76816
   C       -0.38695        -5.12127        -3.92321
   C       -0.66615        -3.83753        -4.36526
   C       -0.21845        -2.74215        -3.65081
   C        3.91077         0.98269        -0.22037
   C        4.57698         1.73252         0.72780
   C        4.75867         3.10263         0.54088
   C        4.26201         3.68557        -0.61678
   C        5.46155         3.90856         1.54889
   C        6.37965         4.84575         1.17989
   C        7.07541         5.60354         2.16554
   C        8.03444         6.58784         2.04628
   C        8.32588         7.12091         0.67249
   C        7.65907         8.50101         0.45970
   N        6.24127         8.53810         0.75388
   C        9.77520         7.11877         0.16706
   N        9.77053         6.77240        -1.24658
   C        8.45699         6.99383         3.43962
   C        9.69453         7.95051         4.93840
   C        9.36609         7.71661         6.41432
   C        8.26720         6.74979         6.67553
   C        7.51584         6.12275         5.76352
   C        7.56041         6.16761         4.33985
   C        6.78207         5.34663         3.55838
   C        5.80915         4.37330         3.90751
   C        5.17421         3.68176         2.93312
   C        9.02941         9.10333         6.89703
   C        7.78022         9.55209         6.92815
   C        7.45279        10.97383         6.89878
   C        6.57443        11.40710         5.89194
   C        5.81331        10.44189         5.04835
   O        5.13439         9.54682         5.50494
   C        5.87079        10.73107         3.59793
   C        4.72732        10.87778         2.86254
   S        5.03015        11.41597         1.27170
   C        6.71652        11.42295         1.56830
   C        7.03820        11.01825         2.82987
   C        8.47991        10.91218         3.20737
   O        9.14758        11.90825         3.38486
   C        9.12035         9.56314         3.20601
   C        8.55187         8.44939         4.01852
   C        9.92005         6.76737         3.97899
   C       11.00794         7.11799         3.03706
   C       11.20077         8.33977         2.51335
   C       10.34380         9.49253         2.63079
   C        6.38070        12.77025         5.69079
   C        7.00067        13.70039         6.49894
   C        7.85593        13.27735         7.51982
   C        8.09035        11.91294         7.69159
   C        8.51010        14.22534         8.39627
   O        9.33668        13.77105         9.36544
   C        9.82691        14.81701        10.06508
   C        9.30587        15.97989         9.53704
   C        8.46485        15.60359         8.47173
   F        7.76169        16.43146         7.69714
   F        9.55625        17.21875         9.96369
   C       10.73468        14.62989        11.16516
   C       11.15479        13.44184        11.59106
   H        1.45021         3.67178        -8.15365
   H        2.90297         2.02871        -4.13202
   H        3.10603         4.72436        -2.68512
   H        0.67478         2.86287        -2.18558
   H       -1.73333        -0.92004        -1.64773
   H        1.39835        -4.34743        -1.15675
   H        0.57912        -6.31343        -2.42882
   H       -0.74277        -5.97306        -4.48390
   H       -1.23327        -3.69167        -5.27277
   H       -0.42133        -1.74397        -4.00882
   H        3.75876        -0.07671        -0.07295
   H        4.97271         1.25193         1.60960
   H        4.39086         4.74768        -0.76925
   H        6.60449         4.97054         0.13073
   H        7.82003         6.43413        -0.01295
   H        7.78326         8.79723        -0.58609
   H        8.15279         9.24523         1.08462
   H        5.74634         7.87313         0.16831
   H        6.07899         8.26434         1.71852
   H       10.34232         6.34258         0.68589
   H       10.25029         8.08997         0.36791
   H       10.71929         6.70915        -1.59858
   H        9.29039         7.48541        -1.78568
   H       10.54812         8.63354         4.92934
   H       10.27852         7.36088         6.91270
   H        8.07342         6.56905         7.72403
   H        6.75530         5.45376         6.14440
   H        5.57752         4.18944         4.94555
   H        4.42012         2.95037         3.18319
   H        9.86307         9.78468         7.00341
   H        6.95753         8.86396         6.79688
   H        3.72370        10.73691         3.21223
   H        7.39115        11.70337         0.78436
   H        7.62920         8.75582         4.50835
   H       10.07404         5.78497         4.42356
   H       11.72441         6.33868         2.81733
   H       12.08591         8.49433         1.90975
   H       10.71144        10.39261         2.15360
   H        5.71919        13.10205         4.90397
   H        6.82463        14.75033         6.33517
   H        8.76718        11.58397         8.46446
   H       11.05764        15.54764        11.63532
   H       10.82693        12.53166        11.11942
   H       11.83312        13.34986        12.41964
*
