# ORCA input file
# SCF done       -179.210351106971          0.000693288665
! CAM-B3LYP def2-SVP def2/J RIJCOSX Grid4 TightSCF
%maxcore 5000
%tddft
    Mode sTDDFT
    Ethresh 5.0
    maxcore 5000
end

%pal
  nprocs 6
  end
* xyz 0 1
   C       -1.59339         2.75809         4.64872
   S       -2.21515         1.27617         5.19353
   C       -3.05378         2.01771         6.52220
   C       -2.84256         3.41138         6.51347
   C       -1.99042         3.81872         5.44019
   C       -1.66449         5.19620         5.28750
   C       -0.81415         5.59396         4.23543
   N       -0.11452         5.90391         3.38056
   C       -2.18680         6.10967         6.17595
   C       -3.02309         5.69323         7.22443
   C       -3.34981         4.37362         7.40473
   C       -3.89942         1.30083         7.39768
   N       -4.74579         1.95726         8.19340
   C       -5.52864         1.02512         8.75778
   C       -5.17703        -0.31823         8.28491
   C       -6.04891        -1.33360         8.90157
   O       -6.04941        -2.53234         8.72558
   C       -6.91281        -0.51769         9.77466
   C       -6.56679         0.91023         9.65627
   N       -7.33635         1.66169        10.47766
   C       -8.11837         0.80247        11.09278
   C       -7.89941        -0.57228        10.71059
   C       -4.09448        -0.16897         7.46374
   C       -3.32189        -1.20307         6.84120
   C       -1.97641        -1.19080         6.76753
   C       -1.13401        -2.17107         6.13192
   C        0.23434        -2.02640         6.23987
   C        1.10319        -2.90394         5.56568
   C        2.49295        -2.95694         5.48752
   C        3.52844        -2.09420         6.12394
   C        3.77013        -0.81951         5.28491
   N        2.58668         0.02302         5.25665
   C        3.21865        -1.73910         7.58841
   N        4.46930        -1.63499         8.32514
   C        2.81295        -4.03048         4.57722
   C        4.00244        -4.46005         4.11547
   C        4.08687        -5.54890         3.09887
   C        2.77629        -6.15558         2.72081
   C        1.59742        -5.72066         3.20922
   C        1.56012        -4.64437         4.12500
   C        0.52803        -3.95880         4.74126
   C       -0.87509        -4.10615         4.67533
   C       -1.67542        -3.24232         5.35183
   C        5.06141        -6.59733         3.55982
   C        6.39461        -6.47878         3.48062
   C        7.25742        -7.55156         3.87241
   N        6.77005        -8.77650         4.02042
   C        7.82767        -9.58183         4.23417
   C        9.07932        -8.81917         4.21571
   C       10.23681        -9.70001         4.43072
   O       11.41201        -9.40437         4.47490
   C        9.60169       -11.02412         4.57299
   C        8.13386       -10.90663         4.44891
   N        7.54329       -12.11668         4.59048
   C        8.53099       -12.95765         4.79448
   C        9.83974       -12.34270         4.80105
   C        8.73090        -7.50394         4.02525
   C        9.64464        -6.41351         4.02666
   C        9.37176        -5.10505         4.23683
   C       10.37836        -4.10401         4.30550
   S       12.05812        -4.51686         4.12455
   C       12.56710        -2.91589         4.37409
   C       11.51008        -2.05541         4.59367
   C       10.24370        -2.73325         4.54769
   C        9.06871        -1.95383         4.73878
   C        7.77305        -2.49461         4.65786
   N        6.68854        -2.86523         4.57953
   C        9.17490        -0.59963         4.98440
   C       10.42461         0.03845         5.04270
   C       11.57648        -0.66682         4.84520
   H       -0.96820         2.79603         3.77774
   H       -1.94717         7.15683         6.06381
   H       -3.41348         6.43804         7.90080
   H       -3.99838         4.04797         8.20160
   H       -8.84441         1.14762        11.80845
   H       -8.42536        -1.42112        11.10081
   H       -3.89120        -2.06258         6.51539
   H       -1.44268        -0.37242         7.23761
   H        0.64200        -1.21556         6.82243
   H        4.47312        -2.64648         6.13068
   H        4.11216        -1.12968         4.28391
   H        4.57654        -0.24422         5.74829
   H        1.83763        -0.45002         4.76131
   H        2.78371         0.89016         4.76946
   H        2.63937        -2.54689         8.04252
   H        2.62283        -0.81570         7.61677
   H        5.00508        -0.83945         7.99501
   H        4.28787        -1.49476         9.31231
   H        4.93704        -4.02405         4.43390
   H        4.52260        -5.08298         2.19878
   H        2.82226        -6.97998         2.02578
   H        0.67045        -6.18263         2.90211
   H       -1.29810        -4.90139         4.07943
   H       -2.74669        -3.34926         5.29271
   H        4.64489        -7.49746         3.98715
   H        6.85261        -5.58266         3.08543
   H        8.32997       -14.00562         4.93544
   H       10.76944       -12.85464         4.95313
   H       10.68115        -6.71493         3.92081
   H        8.35929        -4.77660         4.41415
   H       13.61055        -2.67249         4.35298
   H        8.27450        -0.02050         5.12904
   H       10.45898         1.09888         5.23950
   H       12.54237        -0.18673         4.87760
*
