# ORCA input file
# SCF done       -204.658548618101          0.000924606861
! CAM-B3LYP def2-SVP def2/J RIJCOSX Grid4 TightSCF
%maxcore 5000
%tddft
    Mode sTDDFT
    Ethresh 5.0
    maxcore 5000
end

%pal
  nprocs 6
  end
* xyz 0 2
   C      -11.44395         5.38702        -4.10346
   O      -12.20201         5.25108        -3.16101
   C      -11.56864         6.42527        -5.16801
   C      -10.52602         6.28015        -6.08880
   C      -10.41438         7.12270        -7.17523
   C      -11.37012         8.12269        -7.33159
   C      -12.41192         8.26610        -6.41380
   C      -12.51897         7.41301        -5.31816
  Cl      -13.58042         9.51038        -6.63156
  Cl      -11.26024         9.19006        -8.67737
   C       -9.66900         5.13552        -5.67800
   O       -8.67300         4.73653        -6.25510
   C      -10.26567         4.60527        -4.45033
   C       -9.70353         3.51019        -3.83283
   C      -10.01892         2.80843        -2.65980
   C       -9.23385         1.70241        -2.34208
   C       -9.36635         0.91500        -1.22016
   C      -10.37959         1.19321        -0.20077
   C      -11.26605         2.21180        -0.30711
   S      -11.34724         3.32097        -1.61347
   C      -10.17162         0.21131         0.80006
   C       -9.10299        -0.62789         0.44408
   C       -8.87711        -1.62732         1.42100
   C       -9.74275        -1.52344         2.45979
   S      -10.87467        -0.21698         2.30816
   C       -8.58749        -0.20716        -0.82175
   C       -7.52825        -0.71497        -1.60519
   C       -6.59615        -1.64350        -1.26829
   C       -5.51448        -2.02368        -2.13591
   C       -5.51093        -1.72695        -3.48420
   C       -4.39760        -2.04724        -4.27886
   C       -4.16287        -1.84260        -5.63255
   C       -5.09924        -1.17596        -6.58842
   C       -4.42840        -0.10760        -7.47236
   N       -3.29407         0.54211        -6.81492
   C       -5.80825        -2.22250        -7.46864
   N       -6.72174        -3.00051        -6.65379
   C       -2.84484        -2.35519        -5.90780
   C       -2.13380        -2.42960        -7.04799
   C       -0.72002        -2.88874        -7.06129
   C       -0.22550        -3.42117        -5.74798
   C       -0.97099        -3.39924        -4.62941
   C       -2.28223        -2.86406        -4.64712
   C       -3.24143        -2.69448        -3.67134
   C       -3.28547        -3.02307        -2.29401
   C       -4.38492        -2.70764        -1.56642
   C        0.19331        -1.75641        -7.46986
   C       -0.18367        -0.47379        -7.51219
   C        0.66362         0.62828        -7.88061
   C        0.14793         1.88877        -8.04899
   C        0.88330         3.02543        -8.39544
   C        2.34175         2.96112        -8.49222
   C        3.06303         1.81959        -8.39035
   S        2.36880         0.27565        -8.11256
   C        2.77698         4.29934        -8.69559
   C        1.67503         5.14951        -8.72816
   C        2.04710         6.49628        -8.93199
   C        3.39528         6.62998        -9.04200
   S        4.26333         5.13901        -8.91050
   C        0.47409         4.36729        -8.57299
   C       -0.81180         4.94072        -8.63131
   C       -1.97902         4.30220        -8.87795
  Cl       -3.48587         5.16371        -8.78591
   C       -4.27574         4.35932        -7.43937
   C       -3.53940         4.09394        -6.29962
   C       -4.12989         3.31031        -5.32862
   C       -5.44042         2.78191        -5.51217
   C       -6.17192         3.08143        -6.66215
   C       -5.58833         3.87097        -7.62768
  Cl       -6.43595         4.28806        -9.06781
   C       -5.79104         1.92854        -4.39418
   O       -6.81663         1.26970        -4.24852
   C       -4.63214         1.97517        -3.46204
   C       -4.53718         1.37142        -2.27838
   C       -3.56909         2.83651        -4.06078
   O       -2.47120         3.07578        -3.59845
   H       -9.61262         7.01178        -7.88762
   H      -13.32259         7.52454        -4.60803
   H       -8.83976         3.11599        -4.36273
   H       -8.45002         1.46769        -3.04926
   H      -12.01106         2.40023         0.45104
   H       -8.12300        -2.39065         1.36407
   H       -9.79898        -2.14372         3.33316
   H       -7.44490        -0.25499        -2.57864
   H       -6.59902        -2.08036        -0.27906
   H       -6.36335        -1.25916        -3.94914
   H       -5.87717        -0.68577        -5.99556
   H       -5.20205         0.61654        -7.76436
   H       -4.04952        -0.56315        -8.39523
   H       -3.41324         0.51265        -5.80743
   H       -3.24793         1.51924        -7.08137
   H       -5.04401        -2.83329        -7.98123
   H       -6.40177        -1.70936        -8.23204
   H       -6.21505        -3.45363        -5.89992
   H       -7.17413        -3.71898        -7.20764
   H       -2.53681        -2.10947        -7.99670
   H       -0.60951        -3.67908        -7.82098
   H        0.78231        -3.80826        -5.74352
   H       -0.57768        -3.78766        -3.70054
   H       -2.44316        -3.52468        -1.83939
   H       -4.42618        -2.95351        -0.51420
   H        1.20995        -2.04568        -7.70264
   H       -1.20422        -0.19993        -7.26693
   H       -0.91043         1.99175        -7.85869
   H        4.13700         1.80319        -8.48297
   H        1.36622         7.32632        -8.99199
   H        3.95472         7.53190        -9.19627
   H       -0.84063         6.01871        -8.52522
   H       -2.10552         3.25585        -9.07845
   H       -2.53211         4.46129        -6.17233
   H       -7.17893         2.71666        -6.78352
   H       -5.34165         0.77591        -1.88138
   H       -3.64158         1.47228        -1.68656
*
