# ORCA input file
# SCF done       -257.343644279630          0.000696715175
! CAM-B3LYP def2-SVP def2/J RIJCOSX Grid4 TightSCF
%maxcore 5000
%tddft
    Mode sTDDFT
    Ethresh 5.0
    maxcore 5000
end

%pal
  nprocs 6
  end
* xyz 0 1
   C       25.63660        11.93027        -4.47874
   C       26.83467        12.33256        -3.95746
   F       27.87999        12.53578        -4.77981
   C       27.02403        12.54614        -2.58521
   C       25.97389        12.34395        -1.73357
   C       24.71661        11.92717        -2.21667
   C       24.54413        11.71561        -3.61589
   C       23.29403        11.29289        -4.12429
   C       22.25135        11.08967        -3.26044
   C       22.42716        11.31483        -1.86383
   C       23.62408        11.71792        -1.34598
   C       21.15111        11.06804        -1.16809
   O       20.93061        11.08999         0.02267
   C       20.15893        10.81918        -2.24771
   C       20.88200        10.63919        -3.49186
   C       20.44114         9.97569        -4.60620
   C       21.22661         9.77227        -5.75863
   N       21.81966         9.59957        -6.72630
   C       19.18577         9.34015        -4.70009
   N       18.20273         8.75820        -4.81408
   C       18.83433        10.87987        -1.96239
   C       17.75291        11.03512        -2.89624
   C       17.88023        11.88667        -3.95793
   S       16.47135        12.06141        -4.90821
   C       15.63889        10.89571        -3.91135
   C       16.43745        10.43392        -2.84046
   C       15.94762         9.44844        -1.97595
   C       16.82094         8.90555        -0.88339
   C       16.70016         9.71733         0.41045
   C       14.64397         8.97715        -2.18854
   C       13.89730         9.46822        -3.28785
   C       14.36149        10.43267        -4.16752
   C       13.57644        10.87570        -5.36245
   C       13.88491         9.98060        -6.56403
   S       12.35043         8.68577        -3.44540
   C       12.68941         7.72026        -2.06349
   C       13.89425         7.95978        -1.48068
   C       14.28459         7.27590        -0.26206
   C       14.00998         5.99494         0.01845
   C       14.39300         5.33404         1.25220
   C       15.45572         5.76131         2.00737
   C       15.79643         5.09367         3.20230
   C       16.82138         5.31475         4.10807
   C       17.82646         6.41395         4.05366
   C       17.65024         7.38040         5.25677
   N       18.36954         8.62754         5.15452
   C       19.26572         5.87713         3.96700
   N       20.18627         6.94633         3.60368
   C       16.67231         4.32663         5.15290
   C       17.37972         4.08435         6.27080
   C       16.98289         3.03367         7.24473
   C       15.81695         2.19521         6.81610
   C       15.12901         2.43391         5.68502
   C       15.50527         3.49259         4.82551
   C       14.99115         3.95885         3.63257
   C       13.91036         3.53078         2.82625
   C       13.63754         4.18990         1.67232
   C       16.64987         3.64967         8.58866
   C       16.31081         4.92181         8.75910
   C       16.02050         5.50525        10.06791
   C       16.71892         6.59073        10.48678
   S       16.43629         7.03190        12.12665
   C       15.30994         5.71434        12.29685
   C       15.14100         4.99137        11.09065
   C       14.16444         3.98362        11.01583
   C       13.63434         3.48830         9.69909
   C       13.09125         4.64622         8.85961
   C       13.56711         3.58839        12.21849
   C       13.77072         4.34591        13.39551
   C       14.60348         5.44818        13.45997
   C       14.76646         6.26484        14.70385
   C       15.90719         5.71843        15.56417
   S       12.78166         3.77947        14.72007
   C       12.13908         2.53639        13.73204
   C       12.64258         2.50161        12.46321
   C       12.36285         1.40216        11.57796
   C       11.15978         0.78827        11.49445
   C       10.91980        -0.33372        10.66563
   C        9.70264        -0.84948        10.33113
   C        9.58016        -2.24237         9.83098
   O       10.47561        -2.95462         9.43467
   C        8.15001        -2.58112         9.98112
   C        7.52322        -3.77488         9.77098
   C        6.13397        -3.87674        10.00992
   C        5.41892        -2.73247        10.46901
   C        4.03621        -2.84315        10.71272
   C        3.41115        -4.04048        10.50139
   C        4.09575        -5.17609        10.04822
   C        5.43878        -5.08640         9.80800
   F        2.08972        -4.14795        10.73335
   C        6.09273        -1.50500        10.67024
   C        7.43678        -1.42934        10.42473
   C        8.37302        -0.31124        10.50394
   C        8.03098         1.01815        10.50427
   C        8.94780         2.05908        10.24913
   N        9.64791         2.92970         9.98402
   C        6.70850         1.48526        10.63867
   N        5.65135         1.91233        10.77449
   H       25.52766        11.77327        -5.54051
   H       27.99197        12.86467        -2.23198
   H       26.09483        12.50231        -0.67241
   H       23.18899        11.14950        -5.18809
   H       23.73578        11.87795        -0.28397
   H       18.60254        10.94720        -0.90679
   H       18.74194        12.48327        -4.19366
   H       17.85839         8.92219        -1.22800
   H       16.55956         7.86303        -0.69636
   H       15.70165         9.63759         0.83476
   H       16.88128        10.77434         0.22922
   H       17.42050         9.36500         1.14626
   H       13.83479        11.90953        -5.60324
   H       12.50916        10.82580        -5.13617
   H       14.94701        10.01122        -6.79560
   H       13.32776        10.31538        -7.43501
   H       13.60853         8.95148        -6.34809
   H       11.93932         7.03349        -1.72227
   H       14.77888         7.87461         0.48537
   H       13.46998         5.39144        -0.69983
   H       16.05813         6.59507         1.67877
   H       17.64308         6.99586         3.14186
   H       17.98738         6.88214         6.16911
   H       16.58465         7.60563         5.36790
   H       19.35019         8.43285         4.96840
   H       18.01870         9.17667         4.37644
   H       19.28079         5.03484         3.25418
   H       19.58149         5.49413         4.94002
   H       21.14312         6.61055         3.61883
   H       19.99236         7.27359         2.66196
   H       18.25426         4.66042         6.53775
   H       17.84886         2.37256         7.40585
   H       15.54210         1.38813         7.47899
   H       14.28383         1.81667         5.41595
   H       13.32028         2.67966         3.13350
   H       12.81906         3.86988         1.04308
   H       16.67212         2.97063         9.43066
   H       16.33271         5.61044         7.92407
   H       17.43887         7.14905         9.91948
   H       12.80046         2.81162         9.88005
   H       14.39623         2.95860         9.12640
   H       12.31553         5.17266         9.41019
   H       12.65731         4.25513         7.94279
   H       13.87314         5.35170         8.59513
   H       13.83701         6.24150        15.27706
   H       14.98392         7.29967        14.43082
   H       15.70254         4.69078        15.85593
   H       16.01993         6.31854        16.46309
   H       16.84287         5.74358        15.01050
   H       11.46883         1.82411        14.17380
   H       13.17991         1.04764        10.96333
   H       10.33295         1.17855        12.07146
   H       11.78110        -0.89228        10.31518
   H        8.07992        -4.63346         9.42624
   H        3.47650        -1.98822        11.05874
   H        3.54953        -6.09397         9.89923
   H        5.98793        -5.94778         9.45848
   H        5.52888        -0.65595        11.02335
*
