# ORCA input file
# SCF done       -207.240854414589          0.000773704022
! CAM-B3LYP def2-SVP def2/J RIJCOSX Grid4 TightSCF
%maxcore 5000
%tddft
    Mode sTDDFT
    Ethresh 5.0
    maxcore 5000
end

%pal
  nprocs 6
  end
* xyz 0 1
   C       -4.80905       -12.27309         9.27282
   C       -3.55005       -12.77859         8.98411
   C       -2.80038       -12.27798         7.92891
   C       -3.28592       -11.25030         7.13446
   C       -4.54242       -10.73910         7.41245
   C       -5.31204       -11.25216         8.48168
   C       -6.58537       -10.54403         8.53162
   C       -7.53521       -10.66161         9.50861
   C       -7.41425       -11.50974        10.63063
   N       -7.38009       -12.17866        11.56254
   C       -8.74078        -9.92934         9.56324
   N       -9.73413        -9.36461         9.67312
   C       -6.63770        -9.69788         7.34211
   C       -5.28520        -9.65150         6.79776
   C       -4.74429        -8.61375         6.08763
   C       -5.43592        -7.41137         5.82542
   N       -5.95281        -6.40245         5.64719
   C       -3.41588        -8.59087         5.61773
   N       -2.35412        -8.53598         5.18536
   C       -7.78363        -9.19114         6.80095
   C       -8.01015        -8.73758         5.47911
   S       -7.03234        -9.16592         4.09269
   C       -8.05083        -8.29656         2.97903
   C       -9.12951        -7.73962         3.68554
   C       -9.09456        -8.00023         5.06390
   N      -10.23869        -7.01532         3.16733
   O      -10.45739        -7.03878         1.97058
   O      -10.93396        -6.42835         3.97162
   C       -7.55715        -8.25800         1.65276
   C       -8.00062        -7.52099         0.60200
   C       -7.38349        -7.45144        -0.68988
   C       -6.34335        -8.27184        -1.08455
   C       -5.76693        -8.12904        -2.35818
   C       -4.72280        -8.80871        -2.97807
   C       -3.90642        -9.94300        -2.46054
   C       -3.10192        -9.53272        -1.20889
   N       -1.91994       -10.36355        -1.11094
   C       -4.78354       -11.18173        -2.19997
   N       -3.95782       -12.33692        -1.88306
   C       -4.53135        -8.18299        -4.26633
   C       -3.63744        -8.42513        -5.24229
   C       -3.60581        -7.60609        -6.48989
   C       -4.65515        -6.54554        -6.56775
   C       -5.54181        -6.31804        -5.58257
   C       -5.52150        -7.10676        -4.40618
   C       -6.26889        -7.08710        -3.24890
   C       -7.35212        -6.27640        -2.83244
   C       -7.88942        -6.46257        -1.60335
   C       -3.60344        -8.53628        -7.67525
   C       -4.61673        -8.66566        -8.53339
   C       -4.60072        -9.53360        -9.67435
   S       -3.25593       -10.56497       -10.05649
   C       -4.01723       -11.18491       -11.49477
   C       -5.27421       -10.58917       -11.64125
   C       -5.58016        -9.66581       -10.62211
   N       -6.24036       -10.79604       -12.66571
   O       -6.19939       -11.81694       -13.32768
   O       -7.08590        -9.93728       -12.79839
   C       -3.20315       -12.04943       -12.27171
   C       -3.48314       -12.61849       -13.47202
   C       -2.51736       -13.36593       -14.18687
   C       -2.61357       -13.70119       -15.50632
   C       -1.83288       -14.73907       -16.17303
   C       -0.65102       -15.28047       -15.74687
   C        0.05251       -14.88129       -14.59020
   N        0.67900       -14.59722       -13.67100
   C        0.05228       -16.29082       -16.43820
   N        0.67120       -17.11233       -16.94685
   C       -2.55485       -15.08722       -17.38820
   C       -3.64185       -14.19634       -17.54802
   C       -4.50764       -14.32715       -18.62131
   C       -4.28026       -15.34514       -19.53543
   C       -3.20730       -16.21286       -19.38656
   C       -2.33537       -16.09485       -18.31478
   C       -3.60387       -13.22284       -16.46680
   C       -4.20768       -11.99539       -16.47347
   C       -5.11268       -11.57594       -17.47412
   N       -5.85267       -11.18623       -18.25898
   C       -3.91490       -10.94431       -15.57623
   N       -3.67301       -10.03164       -14.92340
   H       -5.37699       -12.67685        10.09464
   H       -3.15059       -13.57640         9.59125
   H       -1.82571       -12.69256         7.72172
   H       -2.69917       -10.87046         6.31365
   H       -8.67480        -9.19322         7.41537
   H       -9.84954        -7.62916         5.73494
   H       -6.66816        -8.86433         1.52572
   H       -8.87845        -6.90514         0.72655
   H       -5.96540        -9.03041        -0.41854
   H       -3.16507       -10.21807        -3.21714
   H       -3.75431        -9.58767        -0.32315
   H       -2.77717        -8.49263        -1.31965
   H       -2.20857       -11.33258        -1.00787
   H       -1.36505       -10.10161        -0.30394
   H       -5.42764       -11.33904        -3.08277
   H       -5.43831       -11.00135        -1.34458
   H       -3.39590       -12.59548        -2.68827
   H       -4.54150       -13.13187        -1.64574
   H       -2.90128        -9.21369        -5.16540
   H       -2.62381        -7.10112        -6.50054
   H       -4.64738        -5.94375        -7.46374
   H       -6.27387        -5.52896        -5.67053
   H       -7.73663        -5.51973        -3.49970
   H       -8.71775        -5.85484        -1.27156
   H       -2.71094        -9.13618        -7.80075
   H       -5.51953        -8.08340        -8.41027
   H       -6.50786        -9.12189       -10.60662
   H       -2.20863       -12.19500       -11.86418
   H       -4.47075       -12.52692       -13.89550
   H       -1.67265       -13.73520       -13.62122
   H       -5.34915       -13.66508       -18.74383
   H       -4.95001       -15.46253       -20.37342
   H       -3.04884       -16.99589       -20.11209
   H       -1.51143       -16.78150       -18.21038
*
