# ORCA input file
# SCF done       -226.567476103615          0.000553315434
! CAM-B3LYP def2-SVP def2/J RIJCOSX Grid4 TightSCF
%maxcore 5000
%tddft
    Mode sTDDFT
    Ethresh 5.0
    maxcore 5000
end

%pal
  nprocs 6
  end
* xyz 0 1
   C       -0.10294       -10.31122         1.07021
   C       -0.94753        -9.65080         0.22672
   C       -2.33870        -9.89218         0.14952
   N       -3.47091       -10.04104         0.04740
   C       -0.55357        -8.65877        -0.70070
   N       -0.30658        -7.86470        -1.49052
   C       -0.45923       -11.38818         1.98445
   C        0.70594       -11.87986         2.60512
   C        0.66312       -12.92192         3.51183
   C       -0.56896       -13.48794         3.81062
   C       -1.73579       -13.00089         3.20164
   C       -1.68831       -11.95385         2.28855
  Cl       -3.25033       -13.70383         3.58502
  Cl       -0.66480       -14.78435         4.92699
   C        1.87930       -11.12944         2.13581
   O        3.03265       -11.27150         2.47330
   C        1.34066       -10.11501         1.17616
   C        2.08795        -9.15950         0.59655
   C        3.53174        -9.05368         0.73836
   C        4.10952        -7.86753         1.18372
   C        3.43920        -6.62153         1.60509
   O        2.26687        -6.36964         1.66309
   N        4.47576        -5.73142         1.95033
   C        5.74358        -6.31945         1.81148
   O        6.79732        -5.78857         2.03503
   C        5.48818        -7.70357         1.33744
   C        6.37350        -8.73098         1.07562
   C        5.80951        -9.92161         0.62163
   C        4.43977       -10.08209         0.43404
   C        4.05578       -11.39550        -0.13057
   O        2.97730       -11.75593        -0.49652
   S        5.51796       -12.42403        -0.25255
   C        6.61841       -11.12100         0.30881
   O        7.79995       -11.24251         0.40241
   C        4.18481        -4.45340         2.38053
   C        5.09995        -3.47192         2.57399
   C        4.76493        -2.18013         3.02231
   C        5.60168        -1.07887         3.13459
   C        6.98655        -0.95939         2.86591
   C        7.59776         0.24145         3.05362
   C        6.87389         1.36560         3.53360
   C        5.54002         1.29671         3.80712
   C        4.85067         0.08213         3.59515
   C        3.51538        -0.26991         3.78501
   C        3.39949        -1.73041         3.47764
   O        2.40742        -2.40502         3.59048
   C        2.38518         0.43578         4.21762
   C        2.23072         1.79187         4.25725
   C        1.06358         2.46532         4.71621
   C        0.67899         3.69292         4.13427
   C        1.36556         4.47693         3.09605
   O        2.41774         4.28811         2.54273
   N        0.53213         5.58784         2.83356
   C       -0.62521         5.57450         3.63024
   O       -1.50403         6.38777         3.61441
   C       -0.50820         4.34703         4.45775
   C       -1.39144         3.84780         5.39706
   C       -0.98986         2.68462         6.04627
   C        0.19754         2.01733         5.75166
   C        0.51513         0.94367         6.71027
   O        1.53007         0.33019         6.85073
   S       -0.88701         0.71332         7.82939
   C       -1.79440         2.08719         7.13617
   O       -2.86607         2.44395         7.52031
   C        0.88111         6.51339         1.87568
   C        0.20633         7.63867         1.56677
   C        0.68645         8.47979         0.52694
   C        0.11439         9.65297         0.13805
   C        0.55892        10.52488        -0.93841
   C        1.60996        10.31772        -1.79052
   C        1.97913        11.20466        -2.82590
   N        2.33457        11.87665        -3.68535
   C        2.47594         9.20280        -1.77782
   N        3.22437         8.33431        -1.84015
   C       -0.33728        11.67781        -0.96823
   C       -1.30934        11.53041         0.03617
   C       -1.08281        10.26752         0.77184
   O       -1.73738         9.84674         1.69707
   C       -2.29374        12.47519         0.24326
   C       -2.31112        13.59921        -0.57254
   C       -1.34657        13.75572        -1.57586
   C       -0.35726        12.80114        -1.78071
  Cl       -1.37735        15.15025        -2.57673
  Cl       -3.51759        14.79845        -0.34830
   H        1.56808       -13.28607         3.97223
   H       -2.60501       -11.60577         1.84121
   H        1.62388        -8.36337         0.02889
   H        7.43870        -8.63058         1.21017
   H        3.12612        -4.29122         2.53649
   H        6.14286        -3.66722         2.36931
   H        7.54068        -1.81993         2.52445
   H        8.65271         0.35378         2.85456
   H        7.40839         2.29072         3.68945
   H        5.01729         2.15485         4.19558
   H        1.54294        -0.19874         4.46646
   H        2.97314         2.42097         3.78970
   H       -2.32085         4.33651         5.63955
   H        1.79879         6.24254         1.36314
   H       -0.69778         7.91651         2.08623
   H        1.57693         8.13839         0.01435
   H       -3.02899        12.33977         1.02073
   H        0.36750        12.95829        -2.56240
*
