# ORCA input file
# SCF done       -199.379007314936          0.000867639130
! CAM-B3LYP def2-SVP def2/J RIJCOSX Grid4 TightSCF
%maxcore 5000
%tddft
    Mode sTDDFT
    Ethresh 5.0
    maxcore 5000
end

%pal
  nprocs 6
  end
* xyz 0 1
   C      -12.72557       -13.74555        -0.62813
   C      -13.08200       -12.85138         0.34823
   C      -14.13567       -11.92541         0.21531
   N      -14.96839       -11.13958         0.13483
   C      -12.50492       -12.84986         1.63728
   N      -12.13993       -12.87421         2.72518
   C      -13.48252       -14.03977        -1.84285
   C      -13.08101       -15.29768        -2.33004
   C      -13.65504       -15.85333        -3.45475
   C      -14.64371       -15.13332        -4.11492
   C      -15.04048       -13.87812        -3.64125
   C      -14.46806       -13.32470        -2.50064
  Cl      -16.25428       -12.99594        -4.47628
  Cl      -15.37834       -15.79071        -5.52164
   C      -12.00107       -15.84015        -1.47243
   O      -11.45380       -16.91454        -1.55929
   C      -11.69182       -14.74819        -0.51493
   C      -10.53828       -14.76910         0.21372
   C       -9.86905       -13.68083         0.82323
   C       -8.88817       -13.79505         1.77998
   C       -8.43163       -12.47077         2.09405
   C       -7.56410       -11.71168         2.79427
   C       -7.82738       -10.31392         2.34490
   N       -8.77893       -10.24770         1.44331
   C       -9.19100       -11.54057         1.24048
   C      -10.04646       -12.24717         0.47175
   C       -7.08517        -9.19785         2.81477
   C       -7.37066        -7.92526         2.44402
   C       -6.64640        -6.74015         2.79746
   C       -7.17865        -5.50776         2.46159
   C       -6.47402        -4.32627         2.74502
   C       -6.78453        -2.99160         2.49867
   C       -8.05517        -2.48578         1.90438
   C       -8.74812        -1.47680         2.83426
   N       -8.79664        -2.01512         4.18247
   C       -7.82698        -1.89699         0.50032
   N       -7.48441        -2.97371        -0.40896
   C       -5.64131        -2.21434         2.91768
   C       -5.36747        -0.89702         2.84412
   C       -4.06035        -0.33839         3.29574
   C       -3.12177        -1.33911         3.88139
   C       -3.40366        -2.65285         3.94696
   C       -4.64039        -3.14276         3.46419
   C       -5.15922        -4.41775         3.36192
   C       -4.64486        -5.68577         3.71687
   C       -5.37022        -6.80095         3.45172
   C       -4.31770         0.84206         4.20424
   C       -4.14544         0.81119         5.52749
   C       -4.31769         1.92959         6.41286
   C       -4.06869         1.91399         7.75675
   C       -4.29415         3.25000         8.26231
   C       -4.23906         4.08243         9.31706
   C       -4.65728         5.41606         8.77387
   N       -4.93845         5.36173         7.49092
   C       -4.72108         4.06330         7.11487
   C       -4.73317         3.28754         6.00452
   C       -4.72749         6.62735         9.49641
   C       -4.37988         6.76259        10.80943
   C       -4.42327         8.00606        11.46916
   C       -4.04466         8.20930        12.77188
   C       -4.04459         9.46684        13.49184
   C       -4.44899        10.69156        13.02601
   C       -4.41448        11.87912        13.78762
   N       -4.42008        12.88106        14.34793
   C       -4.95590        10.95826        11.73656
   N       -5.37643        11.26641        10.71331
   C       -3.52914         9.20663        14.83548
   C       -3.23222         7.83811        14.95271
   C       -3.53962         7.15161        13.67984
   O       -3.39680         5.96873        13.45185
   C       -2.72728         7.29783        16.11746
   C       -2.50976         8.14511        17.19661
   C       -2.79984         9.50972        17.08932
   C       -3.31020        10.04909        15.91330
  Cl       -2.52376        10.54791        18.42915
  Cl       -1.88174         7.51319        18.66443
   H      -13.34268       -16.82204        -3.81146
   H      -14.79375       -12.35455        -2.16149
   H      -10.03275       -15.72872         0.25400
   H       -8.54962       -14.70686         2.23584
   H       -6.82134       -11.98879         3.51850
   H      -10.68851       -11.88479        -0.30803
   H       -6.27140        -9.42149         3.49028
   H       -8.23557        -7.79217         1.80727
   H       -8.13613        -5.46063         1.96374
   H       -8.72744        -3.33951         1.77578
   H       -9.74227        -1.24450         2.41399
   H       -8.18141        -0.54377         2.87743
   H       -9.29889        -2.89681         4.19138
   H       -9.28015        -1.37591         4.80332
   H       -7.06248        -1.10424         0.55307
   H       -8.75852        -1.44657         0.14506
   H       -6.61759        -3.41584        -0.12086
   H       -7.36734        -2.62770        -1.35407
   H       -6.07365        -0.18071         2.44967
   H       -3.57331         0.07728         2.39545
   H       -2.17920        -0.94891         4.23487
   H       -2.69019        -3.35102         4.36008
   H       -3.67579        -5.75411         4.18916
   H       -4.97163        -7.76868         3.71144
   H       -4.66724         1.73633         3.70931
   H       -3.81709        -0.10633         5.99876
   H       -3.75297         1.06942         8.33994
   H       -3.96331         3.89313        10.33588
   H       -4.98363         3.57986         5.00270
   H       -5.06075         7.48958         8.93291
   H       -4.04250         5.90823        11.37557
   H       -4.76946         8.85095        10.88803
   H       -2.50756         6.24403        16.18460
   H       -3.52055        11.10494        15.87031
*
