# ORCA input file
# SCF done       -226.932426035381          0.000611388782
! CAM-B3LYP def2-SVP def2/J RIJCOSX Grid4 TightSCF
%maxcore 5000
%tddft
    Mode sTDDFT
    Ethresh 5.0
    maxcore 5000
end

%pal
  nprocs 6
  end
* xyz 0 1
   C        3.78199         7.49108        -9.91186
   C        3.54034         6.74787        -8.78233
   C        4.42748         6.66125        -7.69436
   N        5.10211         6.58579        -6.76762
   C        2.40521         5.92495        -8.64138
   N        1.51847         5.20401        -8.52727
   C        5.06402         8.08248       -10.27862
   C        5.07614         8.28234       -11.69034
   C        6.17130         8.78193       -12.33228
   C        7.31731         9.12333       -11.57751
   C        7.30397         8.94207       -10.16466
   C        6.15837         8.41118        -9.52688
   C        8.45034         9.29464        -9.42447
   C        9.55959         9.79834       -10.04766
   C        9.57285         9.97411       -11.43903
   C        8.47562         9.64344       -12.18730
   C        3.76829         7.88627       -12.25122
   O        3.42960         7.87410       -13.41346
   C        2.92477         7.56676       -11.07049
   C        1.56659         7.50339       -11.19593
   C        0.58607         7.66978       -10.20056
   S        0.89638         8.46904        -8.68068
   C       -0.75629         8.31105        -8.18841
   C       -1.51440         7.68180        -9.17256
   C       -0.76028         7.31810       -10.30254
   S       -1.32661         6.42132       -11.70131
   C       -2.79941         5.58779       -11.00183
   C       -3.90170         6.60994       -11.01543
   O       -4.80327         6.60622       -11.80964
   C       -3.74493         7.72618        -9.99024
   O       -2.84400         7.45959        -8.93923
   C       -1.22791         8.75545        -6.92730
   C       -0.40887         9.20950        -5.95153
   C       -0.77993         9.62221        -4.62919
   C        0.21706         9.77917        -3.68847
   C       -0.09687        10.10201        -2.35563
   C        0.69956        10.24680        -1.22781
   C        2.18333        10.15066        -1.10670
   C        2.68845         8.73221        -1.43591
   N        3.96139         8.51278        -0.77611
   C        2.87313        11.22200        -1.97107
   N        4.29338        11.29671        -1.66265
   C       -0.19314        10.50637        -0.12383
   C        0.04275        10.61685         1.19586
   C       -1.06420        10.81636         2.17525
   C       -2.41443        11.00400         1.55434
   C       -2.63685        10.86037         0.23518
   C       -1.56653        10.57002        -0.64566
   C       -1.49771        10.30646        -1.99650
   C       -2.49659        10.18812        -2.99333
   C       -2.14873         9.84877        -4.25807
   C       -0.71467        11.96015         3.08535
   C       -0.50400        11.81895         4.39735
   C       -0.09959        12.86182         5.28584
   S        0.29167        14.45977         4.74562
   C        0.73862        14.96204         6.35101
   C        0.57102        13.91707         7.26049
   C        0.10524        12.73222         6.65119
   S       -0.19113        11.18496         7.44632
   C        0.81333        11.35484         8.96628
   C       -0.00706        12.20787         9.89652
   O       -0.67242        11.75897        10.79058
   C       -0.00317        13.69188         9.56468
   O        0.91185        14.08736         8.56585
   C        1.19229        16.28454         6.57168
   C        1.62341        16.77679         7.76531
   C        2.07561        18.10437         7.91083
   C        2.48900        18.64728         9.09748
   C        3.03444        19.97522         9.30227
   C        3.13718        20.97933         8.37281
   C        3.67732        22.25410         8.64186
   N        4.10465        23.30968         8.78960
   C        2.71390        20.90487         7.03009
   N        2.39481        20.92943         5.92658
   C        3.45574        20.07325        10.69637
   C        3.12774        18.85540        11.35704
   C        2.48772        17.93576        10.40094
   O        2.04400        16.83233        10.65242
   C        3.40616        18.65155        12.67751
   C        4.04553        19.67431        13.41311
   C        4.38098        20.89472        12.75942
   C        4.07450        21.07859        11.39126
   C        5.02280        21.90734        13.50100
   C        5.32012        21.72475        14.82415
   C        4.98898        20.52256        15.46673
   C        4.36478        19.51929        14.77623
   H        6.16633         8.91617       -13.40379
   H        6.16967         8.28697        -8.45498
   H        8.43642         9.15425        -8.35347
   H       10.43357        10.06346        -9.47149
   H       10.45631        10.37263       -11.91519
   H        8.48009         9.77663       -13.25934
   H        1.19255         7.39419       -12.20993
   H       -2.55328         5.23206       -10.00292
   H       -3.02442         4.75932       -11.67115
   H       -4.71738         7.89404        -9.51697
   H       -3.47171         8.64505       -10.52959
   H       -2.29349         8.65691        -6.77985
   H        0.65527         9.21904        -6.16189
   H        1.24425         9.61016        -3.97419
   H        2.46306        10.33882        -0.06531
   H        2.73127         8.60539        -2.52896
   H        1.97371         8.00010        -1.04383
   H        4.61979         9.21485        -1.10443
   H        4.32672         7.59669        -1.01313
   H        2.34749        12.18073        -1.81636
   H        2.78054        10.96293        -3.02798
   H        4.42658        11.61656        -0.70829
   H        4.75280        11.95872        -2.27879
   H        1.03841        10.54329         1.61146
   H       -1.10613         9.90634         2.79594
   H       -3.21622        11.23486         2.23881
   H       -3.63317        10.96763        -0.16874
   H       -3.53003        10.35902        -2.72920
   H       -2.90783         9.75506        -5.01864
   H       -0.62190        12.92894         2.61391
   H       -0.62026        10.85064         4.86927
   H        1.77511        11.79476         8.71050
   H        0.92944        10.34607         9.35863
   H        0.29716        14.24442        10.46160
   H       -1.02861        13.99655         9.31236
   H        1.18011        16.93325         5.70351
   H        1.63679        16.14354         8.63696
   H        2.11534        18.70897         7.01367
   H        3.14531        17.71848        13.15485
   H        4.34365        22.01388        10.92706
   H        5.27549        22.83143        13.00202
   H        5.81262        22.50620        15.38325
   H        5.23111        20.39523        16.51130
   H        4.10735        18.59120        15.26557
*
