# ORCA input file
# SCF done       -169.589999057204          0.000788498961
! CAM-B3LYP def2-SVP def2/J RIJCOSX Grid4 TightSCF
%maxcore 5000
%tddft
    Mode sTDDFT
    Ethresh 5.0
    maxcore 5000
end

%pal
  nprocs 6
  end
* xyz 0 1
   C        8.86492        -5.84664       -12.01078
   C        8.90735        -7.21927       -12.27117
   N        8.95037        -8.34602       -12.47924
   C        8.07123        -4.90330       -12.63078
   F        7.20377        -5.19467       -13.59483
   C        8.27510        -3.60171       -12.14033
   F        7.61880        -2.53740       -12.59374
   C        9.22788        -3.53990       -11.14006
   S        9.87560        -5.11742       -10.80342
   C        9.66486        -2.41469       -10.46035
   C       10.05434        -1.42826        -9.87150
   C       10.50147        -0.29092        -9.21263
   O       11.43661        -0.39383        -8.22734
   C       10.17309         1.03802        -9.37342
   C        9.34236         1.98407       -10.13108
   O        8.54191         1.81580       -11.00879
   N        9.69279         3.22318        -9.58962
   C       10.64699         3.18707        -8.58045
   O       11.08250         4.15131        -7.99944
   C       10.95416         1.76374        -8.43844
   C       11.72182         0.84210        -7.74781
   C       12.67827         0.99544        -6.70600
   C       12.99241         2.21073        -6.20562
   C       13.94654         2.40952        -5.16180
   C       14.29867         3.60104        -4.64712
   C       13.76207         4.92251        -5.08805
   C       15.30100         3.69950        -3.51607
   N       15.48007         2.48672        -2.76926
   C       16.51507         1.63873        -2.91590
   C       16.56726         0.39896        -2.35524
   C       17.68181        -0.44958        -2.44498
   C       17.74172        -1.70445        -1.89329
   C       18.83176        -2.60471        -1.90628
   C       18.59601        -3.78092        -1.25844
   C       17.30025        -3.88015        -0.70625
   S       16.39022        -2.42882        -1.02364
   C       16.74689        -4.94238        -0.00874
   C       17.35599        -6.15431         0.36530
   C       16.52490        -6.99976         1.04616
   C       15.22122        -6.49829         1.23636
   S       15.07954        -4.90983         0.52792
   C       14.16440        -7.14503         1.85695
   C       12.90716        -6.57928         1.99234
   C       11.75971        -7.12526         2.53819
   C       10.67679        -6.21544         2.96017
   O       10.58548        -5.02663         2.72483
   C        9.75365        -7.04398         3.76311
   C        8.63759        -6.66940         4.45046
   C        7.92163        -7.64189         5.18596
   C        8.38633        -8.98805         5.19382
   C        7.67432        -9.95104         5.93443
   C        6.55583        -9.57512         6.62471
   C        6.08176        -8.25744         6.62806
   C        6.76235        -7.30963         5.91463
   F        5.87288       -10.49641         7.33420
   C        9.54419        -9.34806         4.46247
   C       10.21492        -8.39105         3.75260
   C       11.39932        -8.46643         2.89166
   C       11.91369        -9.63857         2.37968
   C       12.83979        -9.71470         1.32327
   N       13.55282        -9.85091         0.43186
   C       11.48834       -10.92089         2.77242
   N       11.20514       -11.99537         3.06726
   H        9.28051         4.08677        -9.91342
   H       13.13952         0.08991        -6.33829
   H       12.49014         3.07651        -6.60952
   H       14.41052         1.51146        -4.77189
   H       13.32083         4.88104        -6.07784
   H       14.55553         5.66809        -5.08719
   H       12.99369         5.25914        -4.39098
   H       14.97323         4.49096        -2.83101
   H       16.27179         4.00118        -3.92471
   H       14.66584         2.13773        -2.28354
   H       17.34966         2.01706        -3.49110
   H       15.71254         0.03838        -1.79794
   H       18.55601        -0.09544        -2.97563
   H       19.75906        -2.35394        -2.39108
   H       19.31212        -4.57768        -1.16970
   H       18.38245        -6.37455         0.13249
   H       16.80743        -7.97293         1.40582
   H       14.36812        -8.12804         2.25406
   H       12.80574        -5.53461         1.70887
   H        8.30265        -5.64291         4.43534
   H        8.00833       -10.97678         5.95215
   H        5.19327        -8.01927         7.19119
   H        6.41728        -6.28645         5.90122
   H        9.87207       -10.37491         4.49147
*
