# ORCA input file
# SCF done       -186.968258371233          0.000530173520
! CAM-B3LYP def2-SVP def2/J RIJCOSX Grid4 TightSCF
%maxcore 5000
%tddft
    Mode sTDDFT
    Ethresh 5.0
    maxcore 5000
end

%pal
  nprocs 6
  end
* xyz 0 1
   C       -6.32273        -0.96786         0.28962
   C       -6.88466        -1.85549         1.16931
   C       -6.29897        -3.08312         1.54096
   N       -5.86911        -4.09293         1.87662
   C       -8.12197        -1.64984         1.81357
   N       -9.12514        -1.51832         2.35572
   C       -5.04626        -1.13721        -0.40013
   C       -4.81339        -0.00504        -1.22446
   C       -3.68672         0.12655        -2.00052
   C       -2.74515        -0.90696        -1.96509
   C       -2.98656        -2.03298        -1.14187
   C       -4.12542        -2.16542        -0.35527
   S       -1.69847        -3.19166        -1.24998
   C       -0.86275        -2.16401        -2.38379
   C       -1.51419        -1.01048        -2.66784
  Br        0.78853        -2.70860        -3.08571
   C       -5.94192         0.92025        -1.08597
   O       -6.09294         2.00411        -1.64901
   C       -6.86849         0.30078        -0.13673
   C       -8.04582         0.91254         0.22412
   N       -8.36675         2.09525        -0.30711
   C       -9.47117         2.84734        -0.06800
   S      -10.67372         2.37184         1.08837
   C      -11.55261         3.82014         0.72551
   N      -12.75434         4.04577         1.41601
   O      -13.36555         5.06469         1.16207
   O      -13.08822         3.19622         2.22094
   C      -10.95805         4.60882        -0.22149
   C       -9.74961         4.06583        -0.70067
   C       -8.88807         4.64480        -1.70011
   C       -9.11003         5.80928        -2.33336
   C       -8.25442         6.39262        -3.33792
   C       -6.92250         6.29675        -3.44645
   C       -6.02287         5.60144        -2.47442
   C       -6.17078         6.97524        -4.57538
   N       -6.96071         7.43444        -5.68674
   C       -7.66168         8.60503        -5.62798
   C       -8.68728         8.91874        -6.43689
   N       -9.31927        10.14921        -6.39157
   C      -10.36341        10.51989        -7.14247
   S      -11.03843         9.45043        -8.33046
   C      -12.24747        10.64931        -8.70501
   N      -13.15586        10.33193        -9.71099
   O      -13.99957        11.16046       -10.00551
   O      -13.02771         9.23270       -10.23218
   C      -12.13799        11.78517        -7.95413
   C      -11.05662        11.75023        -7.05204
   C      -10.68957        12.80050        -6.16295
   C      -11.47481        13.86076        -5.84268
   C      -11.05411        14.88513        -4.96708
   C      -11.83856        15.84642        -4.39837
   C      -13.27557        15.96248        -4.30625
   C      -14.17156        14.92386        -4.25495
   C      -15.56163        15.09719        -4.09827
   N      -16.70001        15.19419        -3.98758
   C      -13.78988        13.56695        -4.22162
   N      -13.51371        12.45604        -4.13155
   C      -13.57947        17.36109        -4.02025
   C      -12.36817        18.03413        -3.71717
   C      -11.23775        17.09294        -3.86411
   O      -10.06504        17.29980        -3.64359
   C      -12.33249        19.36133        -3.36586
   C      -13.54489        20.05873        -3.32260
   C      -14.74580        19.38010        -3.63905
   C      -14.78464        18.03478        -3.98578
   S      -16.12289        20.43375        -3.53336
   C      -15.08222        21.75294        -3.06754
   C      -13.77059        21.42409        -2.99598
  Br      -15.82526        23.43997        -2.72203
   H       -3.53477         0.99860        -2.61706
   H       -4.26318        -3.04210         0.25509
   H       -1.14218        -0.26377        -3.34524
   H       -8.73989         0.47462         0.92948
   H       -7.65812         2.45233        -0.97359
   H      -11.39430         5.53581        -0.54430
   H       -8.02177         4.06523        -1.97665
   H      -10.01577         6.36452        -2.13104
   H       -8.78299         7.00909        -4.05503
   H       -6.44123         5.62858        -1.47103
   H       -5.04540         6.08041        -2.46186
   H       -5.87437         4.55802        -2.75261
   H       -5.42489         6.27238        -4.96175
   H       -5.62663         7.83502        -4.16679
   H       -7.37721         6.70659        -6.24968
   H       -7.29363         9.31838        -4.90219
   H       -9.07208         8.22952        -7.17141
   H       -8.98645        10.80624        -5.69757
   H      -12.80936        12.61431        -8.07824
   H       -9.72408        12.72709        -5.67696
   H      -12.46520        13.93285        -6.26584
   H       -9.99033        14.97852        -4.77479
   H      -11.39905        19.84859        -3.13159
   H      -15.72176        17.55929        -4.22412
   H      -12.99278        22.11443        -2.72510
*
