# ORCA input file
# SCF done       -198.276203667581          0.000492015481
! CAM-B3LYP def2-SVP def2/J RIJCOSX Grid4 TightSCF
%maxcore 5000
%tddft
    Mode sTDDFT
    Ethresh 5.0
    maxcore 5000
end

%pal
  nprocs 6
  end
* xyz 0 1
   C      -19.74376         6.88694         8.11412
   C      -20.75642         7.56844         8.72910
   F      -20.81039         8.90783         8.65447
   C      -21.75514         6.87935         9.44277
   F      -22.73828         7.57401        10.03791
   C      -21.72722         5.51551         9.53693
   C      -20.70195         4.78316         8.90933
   C      -19.69663         5.48067         8.18100
   C      -18.66550         4.76509         7.52789
   C      -18.64598         3.39898         7.59964
   C      -19.63721         2.71098         8.35371
   C      -20.64395         3.37192         8.99262
   C      -19.35285         1.25767         8.31024
   O      -20.00614         0.37797         8.83768
   C      -18.13051         1.11846         7.50037
   C      -17.71980         2.41246         7.04443
   C      -16.68086         2.71610         6.18514
   C      -15.70162         1.82426         5.70871
   N      -14.84235         1.18717         5.28536
   C      -16.48985         3.97914         5.60755
   N      -16.30151         4.96360         5.04045
   C      -17.52880        -0.08724         7.17353
   C      -17.99953        -1.35382         7.47670
   C      -17.35772        -2.49226         7.00191
   C      -17.78231        -3.83381         7.07228
   C      -16.97763        -4.71399         6.39409
   C      -15.87236        -4.10362         5.78070
   S      -15.86581        -2.38465         6.10400
   C      -14.88312        -4.61304         4.94618
   C      -14.74064        -5.87253         4.33098
   C      -13.71132        -5.92665         3.43215
   C      -12.98321        -4.71999         3.30430
   S      -13.62435        -3.53120         4.42198
   C      -12.00489        -4.40953         2.38673
   C      -11.36167        -3.16881         2.28900
   S      -11.43551        -1.95031         3.53472
   C      -10.59991        -0.78268         2.55329
   C      -10.23219        -1.34658         1.34059
   C      -10.62911        -2.68636         1.19488
   O      -10.38863        -3.45328         0.11656
   S       -9.29995        -0.53544         0.07173
   C      -10.46515         0.51045         3.11948
   C      -10.47122         1.70568         2.47916
   C      -10.48399         2.93412         3.19346
   S      -11.07736         4.39181         2.43836
   C      -10.90682         5.30826         3.90228
   C      -10.41776         4.50186         4.91368
   C      -10.18470         3.16720         4.53052
   O       -9.71768         2.22834         5.37264
   S      -10.23709         5.01510         6.59818
   C      -11.26480         6.67369         4.09845
   C      -12.35246         7.31951         3.62191
   C      -13.30666         6.82725         2.68752
   C      -14.64135         7.08297         2.74304
   C      -15.51872         6.90318         1.55423
   O      -15.22819         6.36201         0.51371
   C      -16.78416         7.58383         1.90437
   C      -17.87673         7.82078         1.12169
   C      -18.97264         8.52864         1.66576
   C      -18.91429         8.97787         3.01698
   C      -20.00835         9.68725         3.55228
   C      -21.10777         9.94146         2.78108
   C      -21.16298         9.49994         1.44407
   C      -20.11960         8.80668         0.89726
   F      -22.25182         9.76761         0.70921
   F      -22.14659        10.61704         3.28947
   C      -17.77081         8.71309         3.80489
   C      -16.72313         8.02189         3.25832
   C      -15.44914         7.59215         3.82631
   C      -15.19630         7.45519         5.16894
   C      -14.09538         6.78222         5.72401
   N      -13.24569         6.21562         6.25210
   C      -16.12449         7.81127         6.16799
   N      -16.84976         8.06835         7.02021
   H      -18.97035         7.42688         7.58886
   H      -22.49652         5.00360        10.09365
   H      -17.91634         5.32535         6.99174
   H      -21.38695         2.82867         9.55670
   H      -16.61808        -0.03952         6.58743
   H      -18.91031        -1.46682         8.04582
   H      -18.67953        -4.11276         7.59575
   H      -17.16044        -5.77171         6.32421
   H      -15.41305        -6.68726         4.53231
   H      -13.46707        -6.79343         2.84344
   H      -11.75236        -5.14197         1.63186
   H       -9.86813        -2.95351        -0.52828
   H       -8.76477         0.37793         0.87472
   H      -10.49681         0.52069         4.19977
   H      -10.58544         1.77347         1.40573
   H       -9.63238         2.62454         6.25535
   H      -11.43941         5.59404         6.67856
   H      -10.67932         7.17274         4.86241
   H      -12.57366         8.28810         4.05548
   H      -12.95794         6.25731         1.83446
   H      -17.90564         7.47586         0.09918
   H      -19.98467        10.03012         4.57508
   H      -20.17872         8.47508        -0.12752
   H      -17.74691         9.07929         4.81888
*
