# ORCA input file
# SCF done       -159.662354587134          0.000456691597
! CAM-B3LYP def2-SVP def2/J RIJCOSX Grid4 TightSCF
%maxcore 5000
%tddft
    Mode sTDDFT
    Ethresh 5.0
    maxcore 5000
end

%pal
  nprocs 6
  end
* xyz 0 1
   C        0.54262       -21.18305        -1.67787
   O        0.48564       -22.27175        -0.87253
   C        0.34774       -21.75644         0.36217
   C        0.19096       -21.91396         1.84906
   C        0.15341       -20.34836         1.87569
   C        0.31661       -20.40256         0.36801
   C        0.44451       -19.98247        -0.98676
   C        0.45726       -18.66217        -1.54688
   C        0.36533       -17.55390        -0.79662
   C        0.33340       -16.21381        -1.33699
   N        0.42175       -16.03718        -2.66096
   C        0.35349       -14.79759        -3.10410
   C        0.18356       -13.70558        -2.26607
   C        0.10724       -13.98051        -0.89659
   N        0.19224       -15.23310        -0.45020
   C       -0.09706       -12.94244         0.09500
   C       -0.04301       -13.24444         1.40009
   N       -0.30755       -12.38032         2.42547
   C       -0.23279       -12.70619         3.73874
   S        0.53888       -14.17162         4.24411
   C        0.11488       -13.81026         5.89093
   N        0.53605       -14.70975         6.87351
   O        0.26519       -14.45643         8.03257
   O        1.15769       -15.68646         6.48659
   C       -0.58903       -12.64596         6.02846
   C       -0.79332       -11.98225         4.80195
   C       -1.52175       -10.75207         4.66166
   C       -2.53350       -10.41034         5.49753
   C       -3.28523        -9.21924         5.43557
   C       -4.46376        -9.06092         6.11854
   C       -5.30066        -7.91839         6.18330
   C       -6.44959        -8.10751         6.89069
   C       -6.59634        -9.41863         7.39927
   S       -5.19985       -10.38504         7.01231
   C       -7.67836        -9.98212         8.05488
   C       -8.87923        -9.37577         8.47706
   C       -9.76463       -10.25063         9.03874
   C       -9.31389       -11.59001         9.06911
   S       -7.70083       -11.69572         8.40454
   C      -10.01265       -12.70152         9.50306
   C       -9.49960       -13.98913         9.38526
   C      -10.14804       -15.15080         9.75245
   C       -9.65825       -16.49425         9.58050
   C       -8.50168       -16.88536         8.94521
   C       -8.09604       -18.22643         8.79849
   N       -7.70878       -19.29688         8.64221
   C       -7.57159       -16.02865         8.32378
   N       -6.76947       -15.41006         7.78023
   C      -10.64114       -17.40286        10.16828
   C      -11.72962       -16.63961        10.65611
   C      -11.46903       -15.20532        10.40581
   O      -12.20446       -14.27989        10.69114
   C      -12.82290       -17.20997        11.25907
   C      -12.84345       -18.60318        11.39085
   C      -11.75027       -19.35644        10.90486
   C      -10.64411       -18.77865        10.29251
   S      -11.97744       -21.05897        11.17158
   C      -13.51855       -20.73837        11.92128
   C      -13.84780       -19.42625        11.97088
  Br      -14.54833       -22.16755        12.56703
   H        0.65464       -21.36596        -2.72797
   H        1.03977       -22.36185         2.36216
   H       -0.72831       -22.40006         2.17021
   H        0.98052       -19.88657         2.40972
   H       -0.78895       -19.92702         2.21786
   H        0.53567       -18.57499        -2.62111
   H        0.28714       -17.61541         0.27897
   H        0.43104       -14.67681        -4.17814
   H        0.11602       -12.69960        -2.64747
   H       -0.31088       -11.94405        -0.25882
   H        0.20365       -14.25666         1.68871
   H       -0.66968       -11.46411         2.19157
   H       -0.91634       -12.27955         6.98404
   H       -1.26735       -10.09935         3.83613
   H       -2.83621       -11.12355         6.25317
   H       -2.93688        -8.40479         4.81479
   H       -5.02580        -6.99466         5.70518
   H       -7.20133        -7.35342         7.04032
   H       -9.05937        -8.32203         8.36002
   H      -10.73418        -9.97882         9.41651
   H      -11.00063       -12.56089         9.91642
   H       -8.50973       -14.07629         8.95372
   H      -13.63815       -16.60175        11.61852
   H       -9.83604       -19.39749         9.94034
   H      -14.76014       -19.05184        12.39804
*
