# ORCA input file
# SCF done        -45.510629543762          0.000895674676
! B3LYP/G D3BJ Opt RIJCOSX def2-SVP def2/J
* xyz 0 1
   C        0.12404         1.22723        -0.00424
   S       -1.06606         0.00328        -0.00859
   C        0.12496        -1.21978        -0.00415
   C        1.38980        -0.70801         0.00050
   C        1.38927         0.71642         0.00046
   C        2.61056         1.58595         0.00479
   F        2.27808         2.88657         0.00498
   F        3.38011         1.39141         1.08292
   F        3.38627         1.39336        -1.06929
   C        2.61175        -1.57662         0.00516
   F        2.28026        -2.87749         0.00262
   F        3.38901        -1.38156        -1.06733
   F        3.37945        -1.38339         1.08487
   H       -0.15348         2.26282        -0.00531
   H       -0.15178        -2.25557        -0.00513
*
