33
 SCF done        -47.065533211234          0.000405999884
C           3.17686522953545   -1.72685559601878   -1.21098581671209
C           2.85557247180973   -0.47211516761632   -0.70032178086449
O           3.89073532544857    0.33017407802683   -0.27731075317766
C           3.83497415992365    0.76577607264048    1.07514252629343
C           4.06695519125360   -0.38385461689791    2.04980609491013
C           1.52373534710323   -0.05188192237883   -0.68536204863892
O           1.15044089886856    1.19207287629274   -0.21463614958963
C           1.54952571779757    2.28241583727356   -1.03280492534266
C           0.83312494613101    2.29212254143142   -2.37793280334071
C           0.51097061881644   -0.92030630978880   -1.13453445687509
O          -0.74666288805708   -0.40536360455146   -1.08860645837977
C          -1.85696012121364   -1.23641699221022   -1.34886704668944
C          -2.15467056481107   -2.19811300725294   -0.20205800152930
C           0.85324214443695   -2.17738007233698   -1.61635947330817
C           2.18209276377606   -2.56312607857186   -1.66895907242503
H           4.21372300517515   -2.02182593040213   -1.23247049312039
H           2.87684564859750    1.24966268191285    1.29096490658421
H           4.63682552154011    1.50439514007798    1.15633737539384
H           3.26379204762233   -1.11346818727932    1.96686483130291
H           4.09427265438607   -0.00320779923465    3.06708365354956
H           5.01041565981823   -0.87820565572361    1.82985098165312
H           2.63637039548520    2.26911305817849   -1.18679379427845
H           1.28307474308303    3.16940144660441   -0.45189977214184
H           1.12636813987848    1.42622507456111   -2.96874060865634
H           1.08961346358892    3.19572304722644   -2.92462162458202
H          -0.24213758182412    2.25761746361489   -2.22271861215777
H          -1.72500903382886   -1.78170586649939   -2.29229527161337
H          -2.69007945434464   -0.53842110745608   -1.47148818053356
H          -1.33132036003860   -2.89259194674313   -0.05371694943752
H          -3.05824913539798   -2.76125303320306   -0.41963206917838
H          -2.29928239104082   -1.63641088407324    0.71735220592886
H           0.09677813129477   -2.85648641221284   -1.97550229263561
H           2.43559730518570   -3.53642912738945   -2.06112412040748
