# ORCA input file
# SCF done        -27.271791223167          0.000576752648
! B3LYP/G D3BJ Opt RIJCOSX def2-SVP def2/J
* xyz 0 1
   C       -1.10519         1.23819         0.16263
   S       -2.30376         0.01431         0.00940
   C       -1.11175        -1.21292        -0.16712
   C        0.14478        -0.69788        -0.10555
   C        0.14852         0.71950         0.07819
   O        1.30184         1.44849         0.15166
   C        2.41669         0.71713        -0.32053
   C        2.42028        -0.70215         0.25016
   O        1.29431        -1.43035        -0.20016
   H       -1.38458         2.26040         0.30844
   H       -1.39671        -2.23431        -0.30791
   H        3.30147         1.26857         0.00003
   H        2.39148         0.66569        -1.41815
   H        2.41672        -0.65075         1.34807
   H        3.29705        -1.25608        -0.08770
*
