# ORCA input file
# SCF done        -29.695865799780          0.000725614911
! B3LYP/G D3BJ Opt RIJCOSX def2-SVP def2/J
* xyz 0 1
   C        1.69583         0.58755         0.39031
   C        1.84419         0.59421        -0.98809
   C        2.26320        -0.70006        -1.40166
   C        2.55394        -1.22087        -2.65118
   C        2.94818        -2.55534        -2.71844
   C        3.31083        -3.37510        -3.80836
   C        3.62530        -4.64678        -3.32232
   C        3.47077        -4.65522        -1.94463
   C        3.04838        -3.36194        -1.53144
   C        2.75868        -2.84083        -0.28181
   C        2.36509        -1.50615        -0.21445
   C        2.00918        -0.68447         0.87622
   H        1.38965         1.42426         0.99147
   H        1.67400         1.43125        -1.64131
   H        2.47907        -0.61578        -3.54469
   H        3.34008        -3.06959        -4.83906
   H        3.93710        -5.48187        -3.92286
   H        3.63970        -5.49262        -1.29153
   H        2.83472        -3.44558         0.61184
   H        1.98486        -0.98857         1.90745
*
