20
 SCF done        -29.695865799780          0.000725614911
C           1.69582691652774    0.58755243221074    0.39030690705756
C           1.84418619991871    0.59420942736493   -0.98808565325377
C           2.26319516866661   -0.70005938023336   -1.40166300874685
C           2.55393762955980   -1.22086822784338   -2.65117946773146
C           2.94818468947518   -2.55534446958278   -2.71844219723440
C           3.31083491447108   -3.37510005903386   -3.80836174116645
C           3.62530391681809   -4.64678040851794   -3.32231974353882
C           3.47077240352761   -4.65522368622076   -1.94462808773958
C           3.04837591151906   -3.36193527686791   -1.53144025771445
C           2.75867959826745   -2.84082794806465   -0.28181241410830
C           2.36508631677720   -1.50615406597703   -0.21444997237235
C           2.00917685846188   -0.68446904372843    0.87621819945662
H           1.38964676401579    1.42425918866562    0.99147451470202
H           1.67399769063104    1.43124878328566   -1.64131141855854
H           2.47907407203174   -0.61577725077115   -3.54469335255378
H           3.34008009548473   -3.06958936862807   -4.83906171148546
H           3.93710076558017   -5.48186560441882   -3.92285978302689
H           3.63969518626639   -5.49262145792416   -1.29153018651709
H           2.83472424990619   -3.44558123921724    0.61183674380192
H           1.98486065209356   -0.98857234449738    1.90745263073007
