62
 SCF done        -83.396148712179          0.000407221431
C          -2.22929794976196   -0.79726125516200   -2.82705603863288
S          -0.97812503919817   -1.89619203120528   -2.34660296380462
C          -1.76498549648927    0.38429831937951   -3.27848860000942
C          -0.33997340695196    0.46102631973222   -3.26007402296808
C           0.45541510607201    1.54669236736572   -3.66725384689766
O          -0.22948807158773    2.64858689211334   -4.06647782254020
C           0.30691677211372    3.52334646558864   -5.05507543900681
C           0.54388108971556    2.78060777964907   -6.37867573474714
C          -0.66029590131178    1.96076632325708   -6.83951738580459
C          -0.37144364556039    1.24955670009453   -8.15530781896136
C          -0.69075818030267    4.68598047085497   -5.17523355923985
C          -0.04360475018515    6.05974004765533   -5.00365602490869
C           0.89945057985988    6.41442519329864   -6.14717967583204
C           0.23958491707615   -0.72460494652435   -2.76475764697341
C           1.61177993216215   -0.89720153031822   -2.66463206031767
O           2.14461696915195   -2.08007016482098   -2.22790518066353
C           2.75941001357298   -2.04992108060849   -0.93834158625686
C           1.70354303422865   -2.25127480805694    0.16167757964933
C           0.98313315601618   -3.59511467157597    0.10928588928522
C          -0.20893001711090   -3.62242819786424    1.05739654787179
C           3.90212986366572   -3.08172032663567   -0.90658188971331
C           3.70100926818117   -4.27425740745159   -1.84062497006971
C           4.86849883878184   -5.24831032557731   -1.74268061245819
C           2.41050513647403    0.17195077119971   -3.08725587041925
C           3.83874128643358    0.21247068383200   -3.11360544852832
C           1.83248664104053    1.37678468515849   -3.56445689768078
S           3.09657752306344    2.52317128453808   -3.97631684544874
C           4.32863761562593    1.38358322719187   -3.55780166829115
H          -3.24945199239870   -1.11595647323101   -2.73869364595407
H          -2.38352192569843    1.19389853798168   -3.61973098447745
H           1.26717471597287    3.92333942158084   -4.70214155901266
H           1.39801641050401    2.10910029441130   -6.26118405704181
H           0.80536844010356    3.51809427473157   -7.13898200881698
H          -1.52885893058879    2.61057901480465   -6.96150012316528
H          -0.90734252745042    1.22017655135557   -6.07679427140020
H          -0.14486996387453    1.96942841262271   -8.93924951827832
H          -1.23133228574559    0.66123893637592   -8.46670321451775
H           0.48021375145977    0.58090529897255   -8.04840357987111
H          -1.44459366039506    4.54568169101894   -4.39877804467113
H          -1.19558942756369    4.64789265390927   -6.14062095125083
H           0.50192278383036    6.08735430354378   -4.05819086092639
H          -0.83516463309601    6.81058878684177   -4.95101470329931
H           1.72825402011100    5.71276457008959   -6.20025423062729
H           1.30754965207482    7.41228376232943   -6.00401171014463
H           0.36922395709877    6.39535941629030   -7.09707464212333
H           3.19158924937526   -1.04975477064805   -0.77614837587415
H           0.96317529643614   -1.45279405571906    0.05738769751975
H           2.19094267818094   -2.12410202862674    1.13105635749830
H           1.67434005065352   -4.39455032507829    0.38011390304936
H           0.63721090853235   -3.76793449478319   -0.91092785757256
H          -0.70260804019855   -4.59047750863355    1.01998693194800
H          -0.93215315690485   -2.85888977259238    0.78034787336226
H           0.11104534284810   -3.43849225110607    2.08115252164378
H           4.02189438811159   -3.43187947553871    0.12008282475266
H           4.83366218542764   -2.58528112870022   -1.19137277172202
H           3.60976317997626   -3.91016875115686   -2.86428449797369
H           2.77414228280907   -4.78930318644602   -1.59434639911629
H           5.80429234876285   -4.75586608084168   -1.99984654900510
H           4.72382474527690   -6.08432190054260   -2.42264869575807
H           4.95717695622980   -5.64035725528484   -0.73136151236601
H           4.45050937241881   -0.62367003436908   -2.82741680586860
H           5.35398854293687    1.67438278131768   -3.67649694558771
