# ORCA input file
# SCF done        -18.337889606036          0.000932291180
! B3LYP/G D3BJ Opt RIJCOSX def2-SVP def2/J
* xyz 0 1
   C        1.32943        -1.19062         0.00223
   S        1.84699         0.45146        -0.00065
   C        0.22762         1.00020        -0.00763
   C       -0.66472        -0.03874        -0.00769
   C       -0.01904        -1.30790        -0.00210
   C       -2.06097         0.13121        -0.01240
   N       -3.20029         0.25939        -0.01673
   H        2.06035        -1.97433         0.00702
   H        0.01041         2.04989        -0.01146
   H       -0.54967        -2.24262        -0.00141
*
