# ORCA input file
# SCF done        -37.500889389852          0.000789526745
! B3LYP/G D3BJ Opt RIJCOSX def2-SVP def2/J
* xyz 0 1
   N       -2.52076         1.14420        -0.30832
   C       -3.32202        -0.07663        -0.05490
   N       -2.44387        -1.24497        -0.08284
   C       -1.15975        -0.68522         0.28157
   N        0.02391        -1.48647         0.04004
   C        1.10155        -0.61297        -0.35841
   C        1.01554         0.71389         0.43547
   N       -0.12473         1.53373         0.05028
   C       -1.15673         0.67153        -0.48069
   N        2.31185         1.28848         0.16175
   C        3.21320         0.15122        -0.13055
   N        2.44347        -1.08434        -0.06886
   H       -2.54896         1.76938         0.48978
   H       -4.09880        -0.16731        -0.81860
   H       -3.80301        -0.02933         0.92813
   H       -2.38943        -1.61526        -1.02955
   H       -1.21188        -0.46417         1.35944
   H       -0.14417        -2.21229        -0.64761
   H        1.09944        -0.36603        -1.43626
   H        0.88520         0.46154         1.50570
   H        0.16164         2.23379        -0.62594
   H       -1.02890         0.46098        -1.56147
   H        2.64692         1.85932         0.92625
   H        4.07703         0.11250         0.53598
   H        3.57081         0.27189        -1.16175
   H        2.44891        -1.47640         0.86965
*
