26
 SCF done        -37.500889389852          0.000789526745
N          -2.52076355121513    1.14420146478834   -0.30832270081203
C          -3.32201898101267   -0.07663391581677   -0.05489773042116
N          -2.44386628016324   -1.24496510978700   -0.08284266853264
C          -1.15975318757850   -0.68522487169644    0.28156842783902
N           0.02391217983647   -1.48647186215896    0.04004381298259
C           1.10154771771816   -0.61296843157667   -0.35840825519914
C           1.01554260547195    0.71389467806233    0.43546901332112
N          -0.12473067154860    1.53373409664817    0.05027532774637
C          -1.15673434650611    0.67153189483527   -0.48068522815388
N           2.31184672384539    1.28847718708334    0.16175207477051
C           3.21320230274688    0.15122157445819   -0.13054858543398
N           2.44347365733461   -1.08433927991208   -0.06886130881453
H          -2.54896457615938    1.76938319537052    0.48978387567487
H          -4.09880024839235   -0.16730683759538   -0.81859770401215
H          -3.80301099877630   -0.02932532288840    0.92813103849751
H          -2.38943178150191   -1.61526315725454   -1.02955419488294
H          -1.21187832964207   -0.46417104541013    1.35944101155388
H          -0.14416966254042   -2.21228920564502   -0.64761127816589
H           1.09943983696114   -0.36603113577950   -1.43626170007431
H           0.88519758398478    0.46153806046292    1.50570351534177
H           0.16163874759449    2.23378541998022   -0.62594298814418
H          -1.02889685565494    0.46097807663771   -1.56147206857192
H           2.64691955039414    1.85931607927636    0.92624624104779
H           4.07703196022999    0.11249576818881    0.53597549818920
H           3.57080838979670    0.27188705989063   -1.16174958231883
H           2.44890821477692   -1.47640438016191    0.86964615657296
