23
 SCF done        -45.846516138010          0.000989038211
C           1.64971439094625    1.09478284413135    0.04344854094481
S           2.78599677381650   -0.18515518856434    0.13365002270011
C           1.52638156008106   -1.35073071785336    0.11469904599337
C           0.29562943896382   -0.77641311304045    0.04674431448335
C           0.36618205353678    0.64236101989073   -0.00005773483822
C          -0.85658252237106    1.51508881278018   -0.03912048021699
C          -0.99345706156623    2.22739239216466    1.30760519249695
F           0.00798993932868    3.09844695630244    1.50883198154781
F          -2.12947775516996    2.93649619523704    1.39796542577023
F          -0.98271883784712    1.39712336908279    2.36006808770790
C          -2.11523276484587    0.70818012703714   -0.38362461941802
C          -2.17977847070373   -0.61801181509073    0.37114141694368
C          -1.00790532570119   -1.52229413994036   -0.03804323821542
C          -1.17273313694213   -1.95957409406943   -1.40949730589811
N          -1.29162169946011   -2.27985468082902   -2.49973677514688
H           1.99049172365024    2.11074104233962    0.03335408115104
H           1.76516555671476   -2.39492265698463    0.15109169471620
H          -0.72360488666136    2.32004323299189   -0.77151927863378
H          -2.10635093054472    0.50455754670486   -1.45697070718667
H          -3.00120070995792    1.30604806970570   -0.16287651613723
H          -3.12239820998194   -1.11851974631665    0.14096928600118
H          -2.13890407703714   -0.45080173867227    1.44795229845673
H          -0.97546504824764   -2.41596371700717    0.59596526677796
