# ORCA input file
# SCF done        -22.178878248504          0.000517273151
! B3LYP/G D3BJ Opt RIJCOSX def2-SVP def2/J
* xyz 0 1
   C        0.04667         1.25185         0.02942
   N       -1.11960         0.66740         0.27221
   N       -1.16527        -0.62435         0.24704
   C       -0.03693        -1.29733        -0.02043
   N        1.13530        -0.69076        -0.25840
   N        1.17352         0.59983        -0.23309
   C       -0.11309        -2.74602        -0.04496
   C        0.93898        -3.51394        -0.30500
   H        0.08272         2.33019         0.04832
   H       -1.09382        -3.14760         0.16457
   H        1.90225        -3.07764        -0.50965
   H        0.86473        -4.58745        -0.31968
*
