12
 SCF done        -22.178878248504          0.000517273151
C           0.04666510547370    1.25184711155966    0.02942286288076
N          -1.11960337040747    0.66739511164858    0.27220644837228
N          -1.16527322927054   -0.62435001850416    0.24703893852759
C          -0.03692652880585   -1.29732780686749   -0.02043021606434
N           1.13530446040309   -0.69075782481984   -0.25839591174110
N           1.17351681673483    0.59983391722335   -0.23308889429641
C          -0.11308762765147   -2.74602111757856   -0.04495684046013
C           0.93897586936177   -3.51394119123813   -0.30500277153675
H           0.08271795474424    2.33018731945893    0.04831778284129
H          -1.09381614981972   -3.14759884946294    0.16456920174466
H           1.90225179891396   -3.07763773686800   -0.50964683454987
H           0.86473490032346   -4.58744891455140   -0.31968376571798
