12
 SCF done        -28.472342218860          0.000688098144
C          -1.29669228279912   -1.23086874059374    0.00099353616445
S          -2.47405618801897    0.02368914309847    0.00055631255149
C          -1.26569505336146    1.24843121763658    0.00033572444990
C          -0.01733564212208    0.70474454976361    0.00076427665515
C          -0.03513751345019   -0.71851419004583    0.00112545836120
C           1.27684687872183   -1.35998616045951    0.00147508380121
O           1.55659996461754   -2.51930295323570    0.00205359828417
S           2.52099868007411   -0.03875365565038    0.00221644394168
C           1.31034680123001    1.31312045318968    0.00083353452287
O           1.61901497716883    2.46507932949228    0.00081616041726
H          -1.59656405727401   -2.26003307258672    0.00118009023549
H          -1.53981656478648    2.28475407939127   -0.00001021938488
