# ORCA input file
# SCF done        -28.472342218860          0.000688098144
! B3LYP/G D3BJ Opt RIJCOSX def2-SVP def2/J
* xyz 0 1
   C       -1.29669        -1.23087         0.00099
   S       -2.47406         0.02369         0.00056
   C       -1.26570         1.24843         0.00034
   C       -0.01734         0.70474         0.00076
   C       -0.03514        -0.71851         0.00113
   C        1.27685        -1.35999         0.00148
   O        1.55660        -2.51930         0.00205
   S        2.52100        -0.03875         0.00222
   C        1.31035         1.31312         0.00083
   O        1.61901         2.46508         0.00082
   H       -1.59656        -2.26003         0.00118
   H       -1.53982         2.28475        -0.00001
*
