# ORCA input file
# SCF done        -30.375450238649          0.000834714477
! B3LYP/G D3BJ Opt RIJCOSX def2-SVP def2/J
* xyz 0 1
   C        0.36755         1.03294         0.39006
   S        1.13500        -0.41364         1.23900
   C       -0.52365        -0.86101         0.94835
   C       -0.92624         0.27360         0.33998
   C       -2.21499         0.66983        -0.20682
   O       -3.21605        -0.00633        -0.17523
   O       -2.13925         1.89242        -0.76598
   C       -3.33878         2.43207        -1.32247
   C       -3.98499         3.39191        -0.37208
   C       -4.32645         4.62616        -0.68757
   H        0.83275         1.23712        -0.56998
   H        0.36976         1.92164         1.01474
   H       -1.00571        -1.78339         1.20399
   H       -4.02457         1.60044        -1.53433
   H       -3.05151         2.92806        -2.25249
   H       -4.16048         2.99639         0.61916
   H       -4.15431         5.02764        -1.67289
   H       -4.80310         5.28172         0.02022
*
