18
 SCF done        -30.375450238649          0.000834714477
C           0.36755265813185    1.03294005552001    0.39005612761806
S           1.13499920414693   -0.41363971919427    1.23899859119234
C          -0.52364921809088   -0.86100618347209    0.94834865193739
C          -0.92623924584520    0.27360159418900    0.33998309468065
C          -2.21499061686176    0.66983053337499   -0.20682339817453
O          -3.21604626870977   -0.00633350025580   -0.17523483405528
O          -2.13925128930036    1.89242195751017   -0.76597690917283
C          -3.33878313424339    2.43207272533898   -1.32246996381084
C          -3.98499172340429    3.39191061506959   -0.37208353931985
C          -4.32644614690258    4.62616036215102   -0.68756915396198
H           0.83274793361192    1.23711598134780   -0.56998441709711
H           0.36976063923682    1.92163996885700    1.01473771086194
H          -1.00570794676549   -1.78339093030601    1.20398691981604
H          -4.02456848844589    1.60044340384907   -1.53432513632844
H          -3.05151451258861    2.92806328511437   -2.25249474677105
H          -4.16047816967038    2.99638662265518    0.61915970023399
H          -4.15430850405149    5.02763803805787   -1.67288862903646
H          -4.80309517024735    5.28171519019316    0.02021993138781
