# ORCA input file
# SCF done        -42.549119220648          0.000201478982
! B3LYP/G D3BJ Opt RIJCOSX def2-SVP def2/J
* xyz 0 1
   C       -1.66023        -1.04875         0.09874
   S       -2.67021         0.30067         0.37020
   C       -1.33639         1.36196         0.51016
   C       -0.13939         0.70354         0.35491
   C       -0.33025        -0.70295         0.11462
   C        0.80517        -1.52897        -0.07287
   C        2.04415        -0.97719        -0.01968
   S        3.48068        -2.00579        -0.25324
   C        3.76895        -1.66015        -2.03595
   C        4.98512        -2.42829        -2.51034
   C        2.24141         0.41573         0.23977
   S        3.92656         0.91635         0.31293
   C        3.82199         2.68732         0.76021
   C        5.22679         3.22893         0.94490
   C        1.16939         1.24209         0.41301
   H       -2.09066        -2.01753        -0.05580
   H       -1.50186         2.40332         0.69933
   H        0.68310        -2.58541        -0.25407
   H        3.91354        -0.58523        -2.14044
   H        2.86906        -1.96578        -2.57095
   H        5.86597        -2.11912        -1.95307
   H        5.15331        -2.23936        -3.56871
   H        4.84074        -3.49601        -2.36237
   H        3.25064         2.76185         1.68600
   H        3.30388         3.21123        -0.04386
   H        5.74362         2.68240         1.73042
   H        5.18536         4.28105         1.21937
   H        5.79755         3.12984         0.02431
   H        1.27829         2.29764         0.60091
*
