29
 SCF done        -42.549119220648          0.000201478982
C          -1.66022710262635   -1.04875081362991    0.09873805020390
S          -2.67021216664617    0.30067039687145    0.37020275038359
C          -1.33638691740404    1.36195638412727    0.51015789330586
C          -0.13939217528565    0.70354108182717    0.35490636819716
C          -0.33025172125479   -0.70294759601740    0.11461948096274
C           0.80517055596950   -1.52896990207656   -0.07287282704990
C           2.04414547436126   -0.97718822159626   -0.01967525292818
S           3.48068170289218   -2.00579243940391   -0.25324175963144
C           3.76894536303758   -1.66014831691921   -2.03594795428326
C           4.98512189913370   -2.42828830077718   -2.51033628202892
C           2.24141352606499    0.41573408513153    0.23977442875977
S           3.92656045048234    0.91634556537250    0.31293095586095
C           3.82198653236035    2.68731953637094    0.76021485545439
C           5.22678823723027    3.22893158823656    0.94489588641586
C           1.16938546073622    1.24209310014173    0.41301357025645
H          -2.09065532383835   -2.01752971070426   -0.05580374479226
H          -1.50186207979455    2.40331756585432    0.69932895647962
H           0.68309512321193   -2.58540518616026   -0.25406684618215
H           3.91353968659596   -0.58523038067150   -2.14043576776122
H           2.86905720056317   -1.96577934726676   -2.57095428323330
H           5.86597108106136   -2.11911848902523   -1.95306536486947
H           5.15330841072044   -2.23935644974300   -3.56870789077381
H           4.84074450435555   -3.49601167450823   -2.36237050641377
H           3.25064004020972    2.76185191397522    1.68599523104558
H           3.30387599648529    3.21123330362884   -0.04385654562956
H           5.74361674690110    2.68239657564800    1.73041994888176
H           5.18536299465046    4.28105151418942    1.21936535958533
H           5.79754690550606    3.12984487149805    0.02431182945751
H           1.27828959432123    2.29763934563032    0.60090946032457
