# ORCA input file
# SCF done        -36.858966267344          0.000843677444
! B3LYP/G D3BJ Opt RIJCOSX def2-SVP def2/J
* xyz 0 1
   C       -1.62431        -1.14444         0.16828
   S       -2.76074         0.12313         0.24399
   C       -1.54434         1.31995         0.15808
   C       -0.28789         0.76952         0.07214
   C       -0.33272        -0.67148         0.07863
   C        0.86778        -1.41065         0.00032
   C        2.05840        -0.73971        -0.08141
   C        3.35161        -1.45459        -0.15902
   O        4.42796        -0.91503        -0.25015
   O        3.20720        -2.79123        -0.11683
   C        4.40779        -3.54369        -0.18350
   C        2.09960         0.68506        -0.09165
   C        0.96638         1.42653        -0.01671
   H       -1.95363        -2.16372         0.19302
   H       -1.81380         2.35678         0.17500
   H        0.83675        -2.48860         0.00615
   H        4.12646        -4.58152        -0.02338
   H        5.10791        -3.21097         0.58572
   H        4.87877        -3.42192        -1.16152
   H        3.07144         1.14907        -0.15916
   H        0.99652         2.50543        -0.02260
*
