21
 SCF done        -36.858966267344          0.000843677444
C          -1.62430511330893   -1.14444015286795    0.16827547246882
S          -2.76074385800562    0.12313114608902    0.24398612399317
C          -1.54434384924687    1.31994546394438    0.15807610828197
C          -0.28788707346675    0.76952489981150    0.07214250406449
C          -0.33272241135970   -0.67147513400191    0.07863119286979
C           0.86777946154633   -1.41064576536974    0.00032309946341
C           2.05839886011017   -0.73970706257760   -0.08141149406215
C           3.35161268443784   -1.45458660324290   -0.15902147833442
O           4.42796077098611   -0.91503011741959   -0.25015176180029
O           3.20719992558009   -2.79122711087272   -0.11682965622426
C           4.40779322761843   -3.54369244430499   -0.18350368322311
C           2.09960290530073    0.68505914533980   -0.09164746568261
C           0.96638208571540    1.42652963891599   -0.01671191508563
H          -1.95362937461835   -2.16371510806848    0.19302467091359
H          -1.81379540039080    2.35678127703110    0.17499851278909
H           0.83674914464277   -2.48860269969478    0.00614791744368
H           4.12645511692352   -4.58151751226483   -0.02338248842246
H           5.10790802948691   -3.21097048429530    0.58572333411100
H           4.87877467966848   -3.42191982305743   -1.16152180321859
H           3.07144357827377    1.14906613140413   -0.15915753681074
H           0.99651661010650    2.50543231550228   -0.02259965353476
