# ORCA input file
# SCF done        -28.864702244961          0.000772604953
! B3LYP/G D3BJ Opt RIJCOSX def2-SVP def2/J
* xyz 0 1
   C       -0.35468        -1.68805        -0.00821
   N       -1.66224        -1.29625         0.00450
   C       -1.80691         0.10674         0.01241
   O       -2.87287         0.67302         0.02391
   C       -0.43288         0.57836         0.00481
   C        0.43346        -0.58112        -0.00811
   C        1.80749        -0.10950        -0.01561
   O        2.87344        -0.67579        -0.02704
   N        1.66281         1.29348        -0.00747
   C        0.35525         1.68527         0.00518
   H       -0.08559        -2.72824        -0.01562
   H       -2.45261        -1.92166         0.00782
   H        2.45318         1.91890        -0.01063
   H        0.08617         2.72547         0.01271
*
