14
 SCF done        -28.864702244961          0.000772604953
C          -0.35468350151625   -1.68804546351903   -0.00820852799318
N          -1.66223730998433   -1.29624549546775    0.00449780694912
C          -1.80691316817200    0.10673750947115    0.01241315568859
O          -2.87286516604519    0.67301790475087    0.02391000147786
C          -0.43287905905274    0.57835577455082    0.00480630175421
C           0.43345688153075   -0.58111739017450   -0.00810574974212
C           1.80749245499420   -0.10950048353899   -0.01560641446007
O           2.87344341985151   -0.67578517334677   -0.02704455025357
N           1.66281242066838    1.29348032355449   -0.00746782811671
C           0.35524900062159    1.68526704318572    0.00517501018614
H          -0.08559445891408   -2.72823939507922   -0.01561553316009
H          -2.45260938183945   -1.92165582443558    0.00782193013025
H           2.45317913737315    1.91890233324498   -0.01063490017674
H           0.08616873048447    2.72546833680382    0.01270929771630
