# ORCA input file
# SCF done        -35.702489272122          0.000518880164
! B3LYP/G D3BJ Opt RIJCOSX def2-SVP def2/J
* xyz 0 1
   C       -1.84033         1.10241         0.15772
   S       -2.86348        -0.21734         0.53003
   C       -1.60927        -1.33775         0.21443
   C       -0.45713        -0.72019        -0.17754
   C       -0.58775         0.70167        -0.20512
   S        0.63253         1.85678        -0.75579
   C        2.14308         1.29225         0.01500
   O        3.14866         1.90603        -0.17128
   C        2.02626         0.02955         0.83257
   C        1.89090        -1.14229        -0.13360
   O        2.81520        -1.78500        -0.52668
   O        0.64430        -1.44150        -0.54730
   H       -2.20604         2.10756         0.20549
   H       -1.77288        -2.39167         0.30879
   H        1.17066         0.07588         1.50890
   H        2.95555        -0.09652         1.39034
*
