16
 SCF done        -35.702489272122          0.000518880164
C          -1.84033004086733    1.10240885050507    0.15771501299926
S          -2.86348015977413   -0.21734284057191    0.53002903766577
C          -1.60926660000363   -1.33775119653388    0.21442874860643
C          -0.45713295429218   -0.72019072552081   -0.17754004608454
C          -0.58775444954956    0.70167439574581   -0.20512064869474
S           0.63253459993417    1.85678249990340   -0.75578892375302
C           2.14307593632903    1.29225411045971    0.01500301140149
O           3.14866397988883    1.90603259197277   -0.17128261307136
C           2.02625808205334    0.02955038728010    0.83256601910802
C           1.89090126248410   -1.14228580890164   -0.13360057804277
O           2.81519593028135   -1.78499703556791   -0.52668093292883
O           0.64429643770689   -1.44150433244126   -0.54729520377493
H          -2.20603738699822    2.10755594867133    0.20548765055871
H          -1.77288325012518   -2.39167378583134    0.30878594244095
H           1.17065590354084    0.07588454229918    1.50890002100885
H           2.95555270939171   -0.09651760146861    1.39034350256073
