# ORCA input file
# SCF done        -29.515545524649          0.000621325951
! B3LYP/G D3BJ Opt RIJCOSX def2-SVP def2/J
* xyz 0 1
   C        1.32397         1.46458         0.09982
   C        2.45020         0.68252         0.12234
   N        2.45899        -0.65163         0.02608
   C        1.34552        -1.34005        -0.10072
   C        0.09798        -0.65125        -0.13534
   C        0.10354         0.78497        -0.03236
   N       -1.12841         1.29703        -0.08009
   S       -2.17705         0.09396        -0.23569
   N       -1.13884        -1.13264        -0.25325
   C        1.48599        -2.78081        -0.19905
   C        0.48310        -3.64208        -0.33390
   H        1.35586         2.53817         0.17707
   H        3.43132         1.12740         0.22063
   H        2.51361        -3.11452        -0.15528
   H       -0.53999        -3.31090        -0.37797
   H        0.66231        -4.70162        -0.40270
*
