16
 SCF done        -29.515545524649          0.000621325951
C           1.32397011251689    1.46458202387088    0.09982237367977
C           2.45020329251781    0.68251891830770    0.12234043422355
N           2.45898716222115   -0.65162731147173    0.02608474677703
C           1.34551800685350   -1.34004551703525   -0.10072373461806
C           0.09798295452555   -0.65124831120017   -0.13534275186973
C           0.10354133999149    0.78497319639835   -0.03236425614191
N          -1.12840948051955    1.29702840607717   -0.08008824520146
S          -2.17705344899612    0.09395962046000   -0.23568916388520
N          -1.13883731109627   -1.13263667446370   -0.25324790023811
C           1.48599087040306   -2.78081074743858   -0.19905460477709
C           0.48309577829253   -3.64208077226422   -0.33389798329457
H           1.35585937749285    2.53817386877957    0.17706928734053
H           3.43131798593306    1.12740025137061    0.22062945555611
H           2.51361033455115   -3.11452167513070   -0.15527846576131
H          -0.53998671385532   -3.31090451173354   -0.37797092025589
H           0.66230973916826   -4.70162076452637   -0.40269827153367
