15
 SCF done        -28.886649639174          0.000583673797
C           1.75156516369763   -1.46431950900782   -0.00217979467511
S           3.30120652322121   -0.71779458618718   -0.00121523722927
C           2.62399219521782    0.86832600409779   -0.00045643482772
C           1.26939095220763    0.80771101880958   -0.00072626586515
C           0.75374480507899   -0.53543701857315   -0.00171825634610
C          -0.66728039259695   -0.51106790600248   -0.00197994488830
C          -1.19920325474376    0.76529752166777   -0.00119475134646
S           0.01536426503122    2.03084064583826   -0.00018601353761
C          -2.60716695957283    0.79070763605397   -0.00146218158225
C          -3.11880348806924   -0.46792193973004   -0.00234137683762
S          -1.91090266192904   -1.70481799341873   -0.00308822747167
H           1.67132387778235   -2.53198848252267   -0.00293871376970
H           3.26441866720391    1.72582634361882    0.00018395928164
H          -3.19806332550799    1.68759443214600   -0.00104109912537
H          -4.15042636702094   -0.75846616679011   -0.00274566177931
