# ORCA input file
# SCF done        -28.886649639174          0.000583673797
! B3LYP/G D3BJ Opt RIJCOSX def2-SVP def2/J
* xyz 0 1
   C        1.75157        -1.46432        -0.00218
   S        3.30121        -0.71779        -0.00122
   C        2.62399         0.86833        -0.00046
   C        1.26939         0.80771        -0.00073
   C        0.75374        -0.53544        -0.00172
   C       -0.66728        -0.51107        -0.00198
   C       -1.19920         0.76530        -0.00119
   S        0.01536         2.03084        -0.00019
   C       -2.60717         0.79071        -0.00146
   C       -3.11880        -0.46792        -0.00234
   S       -1.91090        -1.70482        -0.00309
   H        1.67132        -2.53199        -0.00294
   H        3.26442         1.72583         0.00018
   H       -3.19806         1.68759        -0.00104
   H       -4.15043        -0.75847        -0.00275
*
