# ORCA input file
# SCF done        -34.027573200464          0.000490994716
! B3LYP/G D3BJ Opt RIJCOSX def2-SVP def2/J
* xyz 0 1
   C       -2.03492        -1.14020        -0.01962
   S       -2.03655         0.59377        -0.03722
   C       -0.30796         0.60566        -0.00587
   C        0.19415        -0.68523         0.01493
   C       -0.79636        -1.69890         0.01052
   C       -0.49824        -3.16354         0.00697
   C        0.06541        -3.60188        -1.34534
   S        1.92250        -0.67337         0.05743
   C        1.92075         1.06062         0.04806
   C        0.68224         1.61938         0.01650
   C        0.38577         3.08377        -0.02334
   C       -0.11575         3.50119        -1.40632
   H       -2.97874        -1.64916        -0.02898
   H       -1.41119        -3.72026         0.22668
   H        0.23595        -3.37734         0.78823
   H       -0.65631        -3.41004        -2.13673
   H        0.29251        -4.66512        -1.33139
   H        0.97884        -3.05543        -1.56950
   H        2.86428         1.56968         0.07112
   H        1.28827         3.64355         0.22877
   H       -0.38270         3.31010         0.72034
   H        0.63763         3.28938        -2.16198
   H       -0.33477         4.56594        -1.42210
   H       -1.02274         2.95736        -1.65949
*
