24
 SCF done        -34.027573200464          0.000490994716
C          -2.03492019557703   -1.14019894453829   -0.01961812341830
S          -2.03655413575846    0.59377432600618   -0.03722336108600
C          -0.30795822066035    0.60565722073041   -0.00586575785660
C           0.19415315611148   -0.68522684446468    0.01493195228413
C          -0.79635509092018   -1.69890403194007    0.01051966469346
C          -0.49823874933430   -3.16354303291767    0.00696906754701
C           0.06541394962542   -3.60187645612749   -1.34534116379580
S           1.92250207129893   -0.67337236590671    0.05742509638229
C           1.92075239495782    1.06061845177080    0.04806260858920
C           0.68224271258749    1.61937875600080    0.01649941337147
C           0.38577058629545    3.08376511377045   -0.02334395617118
C          -0.11574802760174    3.50118807405686   -1.40632011213182
H          -2.97874042085351   -1.64916109262621   -0.02897828706234
H          -1.41119470389019   -3.72025873917342    0.22667762159643
H           0.23595277124935   -3.37733994664317    0.78822904821240
H          -0.65631133347045   -3.41003745004738   -2.13672862075512
H           0.29250939793671   -4.66511578432426   -1.33138516939175
H           0.97883804726884   -3.05542946154113   -1.56949849915125
H           2.86427556483989    1.56968417985398    0.07111961148550
H           1.28827214386446    3.64354746930995    0.22876627845759
H          -0.38270474150314    3.31009729955591    0.72033734022936
H           0.63762552590773    3.28937964580658   -2.16197941360845
H          -0.33476774879958    4.56593502665868   -1.42209600336156
H          -1.02274495357476    2.95735858672958   -1.65948923505857
