# ORCA input file
# SCF done        -66.035214848873          0.000628752978
! B3LYP/G D3BJ Opt RIJCOSX def2-SVP def2/J
* xyz 0 1
   C       -2.32264         1.08838         0.68911
   C       -1.10776         1.62569         0.28578
   C       -0.06393         0.75142         0.05094
   C       -0.22109        -0.62849         0.22260
   C       -1.43426        -1.15129         0.60799
   C       -2.48985        -0.27731         0.84073
   C        1.09442        -1.29037        -0.04766
   C        1.97914        -0.11625        -0.46438
   O        3.14089        -0.15764        -0.79561
   N        1.23535         1.02590        -0.35514
   C        1.74840         2.33237        -0.68742
   C        1.29234         2.78090        -2.07290
   C        1.68704        -1.96358         1.20814
   C        0.84301        -3.18047         1.59434
   O        0.62305        -4.16401         0.93247
   N        0.34047        -2.93994         2.84193
   C        0.75566        -1.71901         3.35395
   C        0.44530        -1.13305         4.56026
   C        0.99881         0.11739         4.86069
   C        1.84527         0.72800         3.93401
   C        2.14883         0.13095         2.72001
   C        1.59576        -1.09592         2.42559
   C        0.66185         0.72967         6.14104
   C        1.20267         1.82079         6.66915
   H       -3.15275         1.75150         0.88169
   H       -0.99247         2.69144         0.16528
   H       -1.56561        -2.21685         0.71895
   H       -3.44931        -0.66829         1.14334
   H        1.04572        -2.03929        -0.84349
   H        2.83888         2.25536        -0.66349
   H        1.42203         3.04405         0.07675
   H        1.64866         2.08059        -2.82401
   H        1.69471         3.76519        -2.29521
   H        0.20691         2.82406        -2.12612
   H        2.71215        -2.26777         0.97589
   H       -0.26424        -3.58439         3.32640
   H       -0.20769        -1.62510         5.26579
   H        2.27255         1.69144         4.16098
   H        2.81381         0.61779         2.02321
   H       -0.10583         0.20668         6.69846
   H        1.98014         2.38283         6.18129
   H        0.88557         2.19213         7.62838
*
