13
 SCF done        -27.543648932997          0.000434976284
C          -0.67700310986431    1.24047653712863   -0.15613394540907
S          -1.84760350690315   -0.00897892011431   -0.18790824111256
C          -0.65520253254009   -1.24940695999838    0.05550803774142
C           0.58921040744646   -0.67593498253276    0.15026580917346
C           0.57108624380252    0.73375105145845    0.02975291358916
F           1.67394246520187    1.48788873001451    0.09362774395324
F           1.72424747907463   -1.36250574841988    0.33516717467969
C          -1.06554095147171   -2.62948193841755    0.12938078760960
C          -0.25691020857600   -3.66304503881904    0.34668768280825
H          -0.95825606376492    2.26668940379450   -0.27319333831310
H          -2.12792833990816   -2.78325799658555   -0.00624049072072
H           0.80276906924139   -3.54794771663260    0.48891205261511
H          -0.64332095173850   -4.66593642087600    0.38979381338551
