# ORCA input file
# SCF done        -27.548883895099          0.000676323678
! B3LYP/G D3BJ Opt RIJCOSX def2-SVP def2/J
* xyz 0 1
   C        0.36088        -1.26523        -0.36022
   S       -1.06395        -0.29188        -0.63051
   C       -0.19086         1.04977        -0.03908
   C        1.08122         0.68010         0.31387
   N        1.36064        -0.63615         0.11967
   C        2.07883         1.62124         0.86119
   O        1.86260         2.79618         1.03778
   O        3.23481         1.02023         1.13520
   C        4.25718         1.84962         1.66552
   H        0.36067        -2.31150        -0.59037
   H       -0.62558         2.02617         0.02783
   H        5.07156         1.18609         1.94432
   H        3.88971         2.39786         2.53561
   H        4.59002         2.56865         0.91368
*
