# ORCA input file
# SCF done        -34.945629474984          0.000347840565
! B3LYP/G D3BJ Opt RIJCOSX def2-SVP def2/J
* xyz 0 1
   C        0.02540         1.16935        -0.03386
   S       -1.14059        -0.08103        -0.05834
   C        0.11752        -1.26334        -0.01157
   C       -0.18840        -2.71748        -0.00849
   F       -1.50059        -2.97736        -0.04815
   F        0.36187        -3.35735        -1.05900
   F        0.29316        -3.33836         1.08630
   C        1.35905        -0.70549         0.02094
   C        1.31797         0.71419         0.00850
   C        2.46487         1.60262         0.03605
   C        3.73506         1.21901         0.07206
   H       -0.30245         2.19026        -0.05181
   H        2.26069        -1.28859         0.05279
   H        2.21837         2.65617         0.02380
   H        4.02709         0.18331         0.08287
   H        4.53502         1.93838         0.08874
*
