29
 SCF done        -38.635901730823          0.000752078585
N           1.47268721157099    0.00321775790467   -0.58138429393572
C           0.40931021340321   -0.96856162488332   -0.69208604190110
C          -0.40094786544066   -1.13409832110000    0.59509714260779
C           2.56641727066063   -0.24051360069950    0.22472139502478
C           3.06919602779018   -1.45962146151933    0.56920658936384
S           4.55996392454266   -1.34091392342313    1.43484267245425
C           4.49987540987974    0.37166873283994    1.37156486616918
C           3.40221216528081    0.82883922328862    0.70944124074974
N           3.11520676194962    2.18826365693044    0.51701848665512
C           4.00969466014315    2.95413067819589   -0.32157033377641
C           3.72148845020047    2.75343843752265   -1.81017936426301
C           1.86778104772165    2.65524613446891    0.85564224923717
C           1.30044570837966    3.80444246044620    0.49311070875540
H           1.14566836266757    0.95921974073832   -0.52033616092868
H           0.85238572762904   -1.92550926760086   -0.97951605556260
H          -0.24561041237269   -0.64151939975776   -1.50422074410454
H           0.24813206340982   -1.45626713388984    1.40664692510631
H          -1.18197069407385   -1.87647941834915    0.45727020209391
H          -0.86409766302755   -0.18976162663878    0.87499264111937
H           2.68699174703334   -2.43351748307733    0.34410938601627
H           5.28184119225362    0.94763431261181    1.82436158107146
H           5.03200369552130    2.63504370620940   -0.10243807482769
H           3.91474843621544    4.00889871637545   -0.05257787851265
H           3.80480801423653    1.69919792233364   -2.06539362404064
H           4.43135818394473    3.31683031459115   -2.40993665185963
H           2.71560480545529    3.08755996050617   -2.05165596768423
H           1.34815852837666    1.99549773031021    1.54174197018041
H           1.76096618705831    4.51087583965927   -0.17241289168651
H           0.34114083959180    4.07885793600647    0.89114002647746
