20
 SCF done        -35.162292988751          0.000496037839
C          -1.54771938752615   -1.37555022883005    0.26310442983256
S          -2.73914114121971   -0.15355726905375    0.34975439443004
C          -1.59048828537570    1.08591746909841    0.12567567467101
C          -0.31821268560609    0.58308432252004   -0.01347886738390
C          -0.29459316342218   -0.85059975696125    0.06686519334740
C           0.95318962555885   -1.53579505503930   -0.05803368816965
C           0.99192734911628   -2.94028161710991    0.01604342019966
N           1.01983105371642   -4.08651872291128    0.07646185174917
C           2.09472113523846   -0.79799551582680   -0.24935144590621
C           2.07158211029289    0.60716031323674   -0.32744595957001
C           0.89697326189045    1.30816693728467   -0.21638639548929
O           0.76133645043972    2.65274153340057   -0.28144039021956
C           1.91370958769077    3.43693083776718   -0.48713653808595
H          -1.82098091705939   -2.40701402811012    0.35934149566958
H          -1.89261614101280    2.11281648007079    0.10633966695280
H           3.04380820682018   -1.30489516292293   -0.34426707613704
H           3.00911330810866    1.11788870020591   -0.47822009224154
H           1.56531465559460    4.46741472765721   -0.52866589138695
H           2.40799733595660    3.18236560886399   -1.42951913734034
H           2.62296764079976    3.32602042665958    0.33870935507879
