# ORCA input file
# SCF done        -35.162292988751          0.000496037839
! B3LYP/G D3BJ Opt RIJCOSX def2-SVP def2/J
* xyz 0 1
   C       -1.54772        -1.37555         0.26310
   S       -2.73914        -0.15356         0.34975
   C       -1.59049         1.08592         0.12568
   C       -0.31821         0.58308        -0.01348
   C       -0.29459        -0.85060         0.06687
   C        0.95319        -1.53580        -0.05803
   C        0.99193        -2.94028         0.01604
   N        1.01983        -4.08652         0.07646
   C        2.09472        -0.79800        -0.24935
   C        2.07158         0.60716        -0.32745
   C        0.89697         1.30817        -0.21639
   O        0.76134         2.65274        -0.28144
   C        1.91371         3.43693        -0.48714
   H       -1.82098        -2.40701         0.35934
   H       -1.89262         2.11282         0.10634
   H        3.04381        -1.30490        -0.34427
   H        3.00911         1.11789        -0.47822
   H        1.56531         4.46741        -0.52867
   H        2.40800         3.18237        -1.42952
   H        2.62297         3.32602         0.33871
*
