22
 SCF done        -44.993581907840          0.000434924659
C          -0.01784798019676   -1.42953436255857   -0.02441959528765
C          -1.19853890112145   -0.70180370278544    0.01065702096794
C          -2.59065836869849   -1.21766113868090    0.05638873728354
O          -2.92789970013693   -2.37030777829418    0.08186521666225
C          -3.50321884536879   -0.00478712263572    0.06721852564696
C          -2.59510713932449    1.21140545620355    0.05518611507677
O          -2.93655037408421    2.36284768693614    0.07982456954569
C          -1.20111225786774    0.70061457716046    0.01023089960098
C          -0.02309936613707    1.43264106858203   -0.02517368127857
C           1.15763768745875    0.70489869241734   -0.05877313564312
C           1.16020912753565   -0.69748701872486   -0.05839314118440
C           2.55456625904777   -1.20819955440658   -0.09525512252922
O           2.89664389904486   -2.35967734310817   -0.10713832969710
C           3.46247782155588    0.00791060915470   -0.11385932333008
C           2.55008572382424    1.22071335700751   -0.09612998491212
O           2.88793700200107    2.37343850818570   -0.10844059204017
H          -0.01586027714900   -2.50876079650085   -0.02365930255763
H          -4.15196170893262   -0.00561155412136    0.94552253147737
H          -4.16163188353836   -0.00638725722609   -0.80438844350496
H          -0.02507006152236    2.51186123691420   -0.02545577410983
H           4.10025999431560    0.00878692570585   -1.00037703048338
H           4.13173934929443    0.00940951077522    0.74896984029673
