# ORCA input file
# SCF done        -27.557138832492          0.000597792635
! B3LYP/G D3BJ Opt RIJCOSX def2-SVP def2/J
* xyz 0 1
   C        1.62726        -0.11051         0.32851
   C        0.34914         0.23931         0.53969
   C       -0.33769         1.51231         0.84710
   S       -1.92314         1.41426        -0.09071
   C       -1.53056        -0.21147        -0.85423
   C       -0.56415        -0.87487         0.11365
   C        0.39779        -1.91558        -0.39911
   C        1.65735        -1.44659        -0.21580
   C        0.03023        -3.20071        -0.92271
   C       -1.21114        -3.67728        -1.00076
   H        2.50123         0.48894         0.51118
   H        0.22080         2.38896         0.52041
   H       -0.58907         1.61868         1.90440
   H       -1.06031        -0.03766        -1.82273
   H       -2.46825        -0.74381        -0.99190
   H       -1.11736        -1.27046         0.97202
   H        2.56494        -1.97040        -0.46056
   H        0.85821        -3.80478        -1.27277
   H       -2.06219        -3.11696        -0.65405
   H       -1.41594        -4.65026        -1.41141
*
