20
 SCF done        -27.557138832492          0.000597792635
C           1.62725535296316   -0.11051241293135    0.32851428387321
C           0.34914111729679    0.23930823988788    0.53968889919376
C          -0.33769366181277    1.51230784075056    0.84710481429108
S          -1.92313725159096    1.41425975458058   -0.09071193930449
C          -1.53055783789216   -0.21147222071719   -0.85422852829021
C          -0.56414750473668   -0.87487023012271    0.11365241086114
C           0.39779203991406   -1.91558427255490   -0.39911148650763
C           1.65735480761500   -1.44658978482647   -0.21580264506430
C           0.03023220317790   -3.20071494556426   -0.92270753351478
C          -1.21113651719536   -3.67727582421153   -1.00076057449058
H           2.50122850588131    0.48893739845177    0.51118331547889
H           0.22080085393751    2.38895816198243    0.52040946397666
H          -0.58906826286233    1.61868026465235    1.90439708559790
H          -1.06030886588068   -0.03765779048051   -1.82273119247593
H          -2.46824574213709   -0.74380687596205   -0.99189943345142
H          -1.11736354155674   -1.27045616417115    0.97201502253944
H           2.56493579898287   -1.97039556700110   -0.46055522952098
H           0.85820530339317   -3.80477907807011   -1.27276728660866
H          -2.06218767228541   -3.11696391585460   -0.65404779570843
H          -1.41593912521159   -4.65026257783763   -1.41141165087471
