# ORCA input file
# SCF done        -29.802717754955          0.000591220879
! B3LYP/G D3BJ Opt RIJCOSX def2-SVP def2/J
* xyz 0 1
   C       -1.37734         0.94239        -0.12856
   S       -2.36358        -0.46213        -0.04628
   C       -0.98923        -1.53207         0.09895
   C        0.15915        -0.78187         0.07808
   C       -0.05023         0.62628        -0.05069
   C        1.18169         1.35054        -0.06446
   C        2.26313         0.55372         0.04639
   C        3.69664         0.94091         0.06624
   S        1.85203        -1.15912         0.17696
   C       -1.19601        -2.94731         0.21555
   C       -0.22524        -3.85154         0.32603
   H       -1.83302         1.90641        -0.22881
   H        1.23460         2.42075        -0.15276
   H        3.79421         2.02333         0.02997
   H        4.21891         0.50993        -0.78811
   H        4.17869         0.57030         0.97054
   H       -2.23294        -3.25701         0.20635
   H        0.81464        -3.57311         0.33375
   H       -0.44682        -4.90110         0.40835
*
