19
 SCF done        -29.802717754955          0.000591220879
C          -1.37733785674849    0.94239186797637   -0.12855651203694
S          -2.36357627351184   -0.46212942013039   -0.04627881754721
C          -0.98923157529696   -1.53207257075873    0.09895231731397
C           0.15914674748602   -0.78186878149636    0.07808039788186
C          -0.05022745812034    0.62627653104007   -0.05069464752731
C           1.18169232234424    1.35054434289475   -0.06445500335243
C           2.26313337992045    0.55371510032486    0.04638576894691
C           3.69664063825914    0.94091213335513    0.06624437749820
S           1.85203469397580   -1.15912326439491    0.17696308841155
C          -1.19600502787392   -2.94731297433532    0.21555369384943
C          -0.22523718871289   -3.85153563653614    0.32602656749330
H          -1.83301658428231    1.90641335566417   -0.22880636956807
H           1.23459830415169    2.42075307065683   -0.15275659261835
H           3.79420969453387    2.02332652281868    0.02996980936729
H           4.21891149037354    0.50992787593178   -0.78810915408992
H           4.17868975472888    0.57030046240270    0.97054432049726
H          -2.23293838451968   -3.25700778865300    0.20635370971502
H           0.81463630549999   -3.57310718583369    0.33374754324713
H          -0.44682298220711   -4.90110364092680    0.40834550251818
