20
 SCF done        -26.411658097099          0.000406965039
C           1.64658904075634   -1.46328148393071    1.88197510538390
C           2.34875503348443   -0.78771374250393    1.02777921759554
C           3.05252378733334   -0.10932976494460    0.17595852061603
C           3.50705933287401   -0.63167634831699   -1.18342410611938
C           4.25297810672956    0.53989792495001   -1.71764544810443
C           4.27131607879528    1.58607536973198   -0.87427131207202
C           3.53740474214709    1.31973682378071    0.39586292409649
C           5.01201052639737    2.67509505575424   -1.46544508737822
C           5.44220805507239    2.28096606406981   -2.67470849570545
C           5.00068230472076    0.87248664461202   -2.96097999225541
H           0.56742315065470   -1.43994555038016    1.87800558424289
H           2.10713500964711   -2.08131320061098    2.63763557081232
H           2.65243229405416   -0.90952021415957   -1.80786384957164
H           4.13658885387678   -1.52045921849749   -1.07694562333016
H           2.69880885274919    2.00523080934032    0.54689681903074
H           4.18372426615478    1.38909220877129    1.27533964562262
H           5.17920442555843    3.63060459098005   -1.00134116614989
H           6.02246293493161    2.85544250486060   -3.37373234718126
H           5.85383087066977    0.21164310790840   -3.12726442686227
H           4.37373233339326    0.82337841858479   -3.85356153267059
