# ORCA input file
# SCF done        -24.479094580779          0.000699583260
! B3LYP/G D3BJ Opt RIJCOSX def2-SVP def2/J
* xyz 0 1
   C        0.13999         1.46576        -0.07979
   C        0.87391         0.33459         0.07197
   S       -0.13811        -1.09286         0.02245
   C       -1.55483        -0.10165        -0.19772
   O       -2.73622        -0.76344        -0.30184
   C       -3.87283         0.04085        -0.50750
   C       -1.25177         1.21767        -0.23281
   N        2.23022         0.21253         0.32235
   H        0.56380         2.45346        -0.07949
   H       -4.71429        -0.64565        -0.57734
   H       -3.78765         0.61559        -1.43558
   H       -4.02753         0.72956         0.32942
   H       -1.97143         2.00501        -0.36132
   H        2.78216         0.98017        -0.03195
   H        2.61713        -0.68941         0.08941
*
