15
 SCF done        -24.479094580779          0.000699583260
C           0.13999044813512    1.46575822441330   -0.07979298954962
C           0.87390595527547    0.33458834591379    0.07196895039746
S          -0.13811262598405   -1.09286045544038    0.02244604993777
C          -1.55482792304230   -0.10164577465499   -0.19772330610238
O          -2.73621781994064   -0.76343699542327   -0.30183721748900
C          -3.87282507661401    0.04084512831827   -0.50749774502438
C          -1.25176661087573    1.21766995238729   -0.23280799090729
N           2.23021693951646    0.21252870375122    0.32234776373853
H           0.56380405005441    2.45346253074243   -0.07948734794677
H          -4.71429427831038   -0.64564700178567   -0.57734295282170
H          -3.78764927533205    0.61559092164309   -1.43558056716156
H          -4.02752750055295    0.72955626403944    0.32942450081672
H          -1.97143076665598    2.00500702235452   -0.36132374696367
H           2.78216117082413    0.98017224461944   -0.03194731022188
H           2.61713331350250   -0.68940911087846    0.08941390929781
