13
 SCF done        -25.865915466232          0.000660569667
C          -1.37543895844684   -1.21836345735228   -0.00262720361929
S          -2.47502666305954    0.10809647354263   -0.00020327697696
C          -1.21002139015088    1.26589229524514    0.00125029485083
C           0.01885535813790    0.66212602630020    0.00008275358947
C          -0.09379018638945   -0.76972784661784   -0.00217014617689
S           1.46204468231879   -1.54814894044109   -0.00379851343714
C           2.24087725829875    0.03835818573404   -0.00125757335895
C           3.63732855446061    0.11800946429159   -0.00165149431012
N           4.78262765401269    0.19032819036437   -0.00137023492258
C           1.37429243710984    1.08779612179597    0.00052146624174
H          -1.74285607201590   -2.22351763736161   -0.00415325497907
H          -1.44224855889780    2.31118834982319    0.00294916739896
H           1.68824588462183    2.11598277467569    0.00198801569999
