# ORCA input file
# SCF done        -25.865915466232          0.000660569667
! B3LYP/G D3BJ Opt RIJCOSX def2-SVP def2/J
* xyz 0 1
   C       -1.37544        -1.21836        -0.00263
   S       -2.47503         0.10810        -0.00020
   C       -1.21002         1.26589         0.00125
   C        0.01886         0.66213         0.00008
   C       -0.09379        -0.76973        -0.00217
   S        1.46204        -1.54815        -0.00380
   C        2.24088         0.03836        -0.00126
   C        3.63733         0.11801        -0.00165
   N        4.78263         0.19033        -0.00137
   C        1.37429         1.08780         0.00052
   H       -1.74286        -2.22352        -0.00415
   H       -1.44225         2.31119         0.00295
   H        1.68825         2.11598         0.00199
*
