20
 SCF done        -38.925995704122          0.000456008378
C          -0.84901182894077   -1.46611777599212   -0.00753009227916
C          -2.02824906762805   -0.77431836108297   -0.01021583131920
F          -3.19209195570224   -1.44671333624903   -0.01290083454361
C          -2.07811505017801    0.64110216624900   -0.00934674154790
F          -3.28638957233047    1.22992815594256   -0.01129742065592
C          -0.95049109458163    1.41417864895225   -0.00569149319659
C           0.27104710036694    0.73144958063262   -0.00091180179207
C           0.32144157210366   -0.69911801294222   -0.00186517974895
N           1.61655915046175   -1.05057145896710    0.01246828940452
N           2.25530784642452    0.08518306606637    0.02249191281984
C           3.68990289977633    0.13569130347583    0.00758492873845
C           4.20815653769057    0.17395770166556   -1.42689962489145
N           1.53819334471627    1.17318041543693    0.01404302845804
H          -0.82658814058614   -2.54247669492725   -0.00836159719720
H          -1.00388683889443    2.48944685062833   -0.00514141426340
H           4.05376438767408   -0.75542677145304    0.52191657726433
H           3.99210106152124    1.03534891670252    0.54654170955076
H           3.88992374129336   -0.71539878028672   -1.96504153374912
H           5.29355816290680    0.21258882458059   -1.42418621617965
H           3.82677774390620    1.05306556156789   -1.94023666487174
