# ORCA input file
# SCF done        -37.437264600786          0.000920262512
! B3LYP/G D3BJ Opt RIJCOSX def2-SVP def2/J
* xyz 0 2
   C        0.82080         0.79948         0.68119
   S        1.13670         0.86093        -0.99818
   C       -0.60666         1.03002        -1.38209
   S       -1.15575         1.15962        -2.95705
   C       -1.30977         1.02953        -0.20548
   C       -0.52530         0.90023         0.95906
   C       -1.26424         0.89578         2.19395
   C       -2.59646         1.01331         2.05752
   S       -3.02954         1.14430         0.29320
   O       -3.56327         2.44032        -0.00865
   O       -3.76340        -0.00770        -0.14248
   C       -3.61934         1.04450         3.05452
   C       -4.90979         1.17033         2.74631
   H        1.63138         0.69314         1.37544
   H       -0.75778         0.80324         3.14258
   H       -3.29435         0.96006         4.08493
   H       -5.22848         1.25323         1.72218
   H       -5.67215         1.19270         3.50561
*
