28
 SCF done        -40.338826106969          0.000627409569
C           2.50500673542999    1.33890316345429   -0.00636555714731
C           1.24051982423713    0.69451509777155    0.01489939269420
C           0.03462231515718    1.41555459576208    0.06401962966801
C           0.08656192053465    2.88374396958253    0.13631834398409
C          -0.45463769741754    3.69851788643349   -0.75561442677892
C          -1.19606820380736    0.73672514489977    0.05588217914870
C          -1.21135078896377   -0.69196812493534   -0.02185571083485
C          -0.01078960935963   -1.39220831981325   -0.07117426872190
C           1.21377163491487   -0.73276224300618   -0.04842243028200
C           2.44029362499789   -1.44320418843748   -0.10057431457046
C           3.63162403687701   -0.78651762884232   -0.10229988175531
C           3.66172417060030    0.62232669378598   -0.05919842444531
C          -2.45847951583163   -1.36825788530396   -0.04305716966150
C          -3.63065962887664   -0.68237012838699    0.02629061904526
C          -3.61905954745448    0.72313544995690    0.13844763427406
C          -2.44277796977028    1.40834333527305    0.15644020675348
H           2.53879430400750    2.41787096417263    0.01007318054316
H           0.62708700316755    3.29095673533604    0.98364407928109
H          -0.97430530001842    3.32335908799937   -1.62273539724678
H          -0.38507072742864    4.76966569284911   -0.66352547922808
H          -0.02985548417940   -2.47171495974375   -0.13020638250304
H           2.40384972659433   -2.52266004170929   -0.14273553005650
H           4.56202664801864   -1.33404900833085   -0.14263342875068
H           4.61583870564064    1.12891648115383   -0.07331660996913
H          -2.45212755736203   -2.44695332028065   -0.11158185980116
H          -4.57636418720546   -1.20422272728250    0.00865956716823
H          -4.55768578787830    1.25249631108370    0.21613919914794
H          -2.44484864462406    2.48293796655827    0.25755284004472
