# ORCA input file
# SCF done        -40.338826106969          0.000627409569
! B3LYP/G D3BJ Opt RIJCOSX def2-SVP def2/J
* xyz 0 1
   C        2.50501         1.33890        -0.00637
   C        1.24052         0.69452         0.01490
   C        0.03462         1.41555         0.06402
   C        0.08656         2.88374         0.13632
   C       -0.45464         3.69852        -0.75561
   C       -1.19607         0.73673         0.05588
   C       -1.21135        -0.69197        -0.02186
   C       -0.01079        -1.39221        -0.07117
   C        1.21377        -0.73276        -0.04842
   C        2.44029        -1.44320        -0.10057
   C        3.63162        -0.78652        -0.10230
   C        3.66172         0.62233        -0.05920
   C       -2.45848        -1.36826        -0.04306
   C       -3.63066        -0.68237         0.02629
   C       -3.61906         0.72314         0.13845
   C       -2.44278         1.40834         0.15644
   H        2.53879         2.41787         0.01007
   H        0.62709         3.29096         0.98364
   H       -0.97431         3.32336        -1.62274
   H       -0.38507         4.76967        -0.66353
   H       -0.02986        -2.47171        -0.13021
   H        2.40385        -2.52266        -0.14274
   H        4.56203        -1.33405        -0.14263
   H        4.61584         1.12892        -0.07332
   H       -2.45213        -2.44695        -0.11158
   H       -4.57636        -1.20422         0.00866
   H       -4.55769         1.25250         0.21614
   H       -2.44485         2.48294         0.25755
*
