25
 SCF done        -36.120727913785          0.000530300441
C           1.61006555707214    1.26103121358944    0.13696556991582
S           2.79108720884635    0.01766636698355    0.23739296947947
C           1.56489373826034   -1.18742788857298    0.20047880224722
C           0.31718062059270   -0.65279704765263    0.11424158316044
C           0.34503343569539    0.77060958147687    0.07595323271871
C          -0.89441147711438    1.61901075415557    0.06366463509220
N          -0.99499754936678    2.28888817347124    1.35750535194690
C          -2.11562323777349    0.75710919121358   -0.30372417119353
C          -2.13115677451867   -0.55792495635345    0.47055105125260
C          -0.96358978150431   -1.43603418006365    0.01809102030484
O          -1.24837419465119   -1.83584840512793   -1.31690154240908
C          -0.40326929163735   -2.82902500393164   -1.82896524151740
H           1.91575684520326    2.28747611021522    0.14028231887016
H           1.84396793184082   -2.22089718236061    0.26375582812205
H          -0.78197299106598    2.41749828279344   -0.68130933699184
H          -1.06028847670318    1.60474918510216    2.10402293234357
H          -1.82945293327705    2.86512615666768    1.38906470768167
H          -2.08569784296782    0.52350403685192   -1.36827567664401
H          -3.02832232392658    1.32371803241740   -0.10182796024893
H          -3.06200957741148   -1.09164967815281    0.27674121094962
H          -2.04983885334715   -0.37984662678085    1.54526147333022
H          -0.89206541251528   -2.33916685327998    0.65049710689143
H          -0.80251520271063   -3.09214756456945   -2.80675920686204
H          -0.40026534312222   -3.71822356887852   -1.18470263301901
H           0.62659592610249   -2.47113812921358   -1.94300402542112
