27
 SCF done        -51.122946023046          0.000923439301
C           1.60299466793997   -0.95916712283896    1.16142954673484
S           2.81360474235104    0.22719085804761    0.93799066190914
C           1.67891547730648    1.31557690895766    0.19008629137630
C           0.42271550946320    0.75539122301118    0.14985814493896
C           0.38681117565238   -0.54827338706771    0.70686758542155
C          -0.86276531658301   -1.36947515474303    0.81903526694972
C          -1.97449198665726   -0.83834752110892   -0.08997357763734
C          -1.74844053994122   -1.27967760095240   -1.53228860927639
F          -1.95174549749576   -2.60039509976937   -1.66181575590648
F          -2.60321679793379   -0.68092416620157   -2.38065953134802
F          -0.52191028215480   -1.04356331881921   -2.00725912968334
C          -2.08619323219337    0.69307620283897    0.02461437874217
C          -2.38225118292095    1.03332783296339    1.39994739627190
N          -2.60650126235396    1.30652897426940    2.48594713971261
C          -0.79886068264133    1.41037126322616   -0.41540731725457
C           2.18616454572579    2.59114539447234   -0.24829874446544
C           1.61114619276019    3.45719111956218   -1.07819032304970
H           1.85020120903897   -1.89623795353620    1.61884761505466
H          -1.21897866751344   -1.33568556658316    1.85346136766528
H          -0.64921188943082   -2.41404264907739    0.57911938270353
H          -2.93149077559119   -1.29025363472821    0.19841376902002
H          -2.92373283205197    1.04786643069045   -0.58910241978505
H          -0.84287175516130    2.45342873718717   -0.08931272428522
H          -0.74581611927079    1.40498634788259   -1.50845738749612
H           3.16506779237577    2.82641710713020    0.15147958476367
H           0.66400467267206    3.28449482283414   -1.55378683733371
H           2.10308283460901    4.38166995235270   -1.32653577374279
