36
 SCF done        -51.547548673895          0.000345307341
C           0.14010366615343   -2.13891669301009   -0.56650016363638
C           1.49665414126088   -2.09295441149843   -0.43800100041449
C           2.11739765492376   -0.98245414784536    0.14376916865371
C           1.37766008067002    0.09186687074076    0.58134439156395
O           1.90910510681491    1.17773452587911    1.20856573199005
C           3.30092216791050    1.28234825496457    1.41458115861086
C           4.05080023800581    1.73624691133560    0.16424096113593
C          -0.04353511538582    0.09747322322614    0.42540691266131
C          -0.65170895602030   -1.05721226772352   -0.13126642507879
C          -2.07188710232842   -1.12857418986922   -0.24204389346785
O          -2.55650892030673   -2.26772346379624   -0.80908244507700
C          -3.95247141046947   -2.41234010369989   -0.96228515026009
C          -4.20530140635303   -3.74477816953083   -1.65076580477824
C          -2.84327423279656   -0.08888094495024    0.21372441898520
C          -2.23325525188164    1.05096142031466    0.74311332729931
C          -0.86733379732118    1.18234785472485    0.83944771342731
C          -0.33062645454596    2.45725207696777    1.32483171292854
C          -0.76639609973767    3.06966338589529    2.41528115772545
H          -0.35332803400065   -2.99637003538481   -0.99362307428333
H           2.10939105718543   -2.91745467228927   -0.77165387167618
H           3.19030086629188   -0.99855842033272    0.25069713698056
H           3.71217717794694    0.34045979300043    1.79812875617187
H           3.39835323171109    2.04094405231182    2.19723581525730
H           3.93307618669666    1.01843260065169   -0.64372034662935
H           5.10824510655904    1.84498606445164    0.39002633580305
H           3.66172386701896    2.69461770441774   -0.17081885316937
H          -4.35353757857652   -1.58968378669734   -1.57112098420021
H          -4.44477936416289   -2.39345413327407    0.02040264732359
H          -3.71440755112629   -3.75962403743700   -2.62008848426326
H          -5.27249417028457   -3.89387466379983   -1.78833987874582
H          -3.80582905597586   -4.55564124931609   -1.04784820403798
H          -3.92009496817711   -0.11993097502986    0.15868742172162
H          -2.86033019134868    1.87174769511942    1.05900033320110
H           0.43786033335292    2.91418753697189    0.71785912603842
H          -1.51184492996017    2.62567563404762    3.05489446303229
H          -0.37940629174056    4.02563076046198    2.72488988920454
