15
 SCF done        -26.918875455085          0.000606952820
C           2.18748529978233    0.46161576374047    0.09165072961767
S           1.70823301854236   -1.19417121848092    0.26801727849667
C           0.05770826746835   -0.73729664567739    0.07857968436477
N          -1.06985862080675   -1.45871676153420    0.08284663095013
C          -2.10739917963669   -0.70834498660721   -0.09695296995407
S          -1.74334851422841    1.02703469431988   -0.29264485410810
C          -0.07447762478458    0.63991082645732   -0.10994806023154
C           1.15495314394920    1.32396333129116   -0.10088455378602
C          -3.45217281867349   -1.20457062665690   -0.13891426098769
C          -4.52972051694133   -0.44960829832396   -0.33249517083577
H           3.23168106409006    0.69862227473212    0.14326507159466
H           1.26379020920403    2.38474182152367   -0.22892700753422
H          -3.52886290069794   -2.27363543324979    0.00241272087100
H          -4.45483893621599    0.61650649089704   -0.47469937740355
H          -5.51738189105113   -0.87421123243131   -0.35556586105394
