17
 SCF done        -24.383687066743          0.000494823414
C           0.66666920868538    1.22167145759623   -0.07013710601616
S          -0.58894408545127    0.07188966689800   -0.28024614363404
C           0.51266433873088   -1.24977531798743    0.00158818855939
C           1.77766524019014   -0.77269309440165    0.24249914514103
C           1.86080469763479    0.63003114142862    0.20135092814194
C           0.02176094383473   -2.59258341471724   -0.04492950150156
C           0.76669838447953   -3.70077683197843    0.12181901892074
C           0.22339253078273   -5.02962793376052    0.06478888160772
C           0.95300422406171   -6.13369077638118    0.21858891717779
H           0.44471324573866    2.26628723459160   -0.16113105341257
H           2.62028294194456   -1.40826715711203    0.44491135332953
H           2.77088002344939    1.17919630170521    0.36607451114456
H          -1.03930064950605   -2.69477632289115   -0.23456292029722
H           1.82851476317431   -3.62035129183786    0.30755191000859
H          -0.84140258372140   -5.10520878772321   -0.11562624104069
H           2.01462079476190   -6.08648407544292    0.39755957342178
H           0.51794598121001   -7.11656079798606    0.16936053844917
