# ORCA input file
# SCF done        -24.383687066743          0.000494823414
! B3LYP/G D3BJ Opt RIJCOSX def2-SVP def2/J
* xyz 0 1
   C        0.66667         1.22167        -0.07014
   S       -0.58894         0.07189        -0.28025
   C        0.51266        -1.24978         0.00159
   C        1.77767        -0.77269         0.24250
   C        1.86080         0.63003         0.20135
   C        0.02176        -2.59258        -0.04493
   C        0.76670        -3.70078         0.12182
   C        0.22339        -5.02963         0.06479
   C        0.95300        -6.13369         0.21859
   H        0.44471         2.26629        -0.16113
   H        2.62028        -1.40827         0.44491
   H        2.77088         1.17920         0.36607
   H       -1.03930        -2.69478        -0.23456
   H        1.82851        -3.62035         0.30755
   H       -0.84140        -5.10521        -0.11563
   H        2.01462        -6.08648         0.39756
   H        0.51795        -7.11656         0.16936
*
