# ORCA input file
# SCF done        -54.335258344461          0.000277142184
! B3LYP/G D3BJ Opt RIJCOSX def2-SVP def2/J
* xyz 0 1
   C        2.15692        -1.28168        -0.09393
   C        3.21699        -0.42159        -0.27715
   C        3.05248         0.97111        -0.34863
   C        1.77210         1.50153        -0.22398
   C        0.69199         0.65346        -0.04414
   C        0.87838        -0.74742         0.02196
   N       -0.33582        -1.36690         0.20489
   C       -1.31478        -0.39698         0.25675
   C       -0.71588         0.87873         0.10745
   C       -1.48758         2.03247         0.12482
   C       -2.85184         1.91505         0.29090
   C       -3.44041         0.66174         0.43619
   C       -2.69150        -0.49907         0.42094
   C       -0.51066        -2.79753         0.31370
   C       -1.07698        -3.19546         1.68500
   C       -0.18793        -2.70664         2.82257
   C       -1.34243        -3.35218        -0.85252
   C       -0.70313        -3.03201        -2.19879
   C        4.17203         1.88147        -0.54629
   C        5.43317         1.55706        -0.80717
   H        2.33768        -2.34536        -0.04313
   H        4.20873        -0.83770        -0.36101
   H        1.61855         2.57010        -0.27189
   H       -1.02224         2.99997         0.00980
   H       -3.47313         2.79809         0.30809
   H       -4.51107         0.59328         0.56411
   H       -3.18741        -1.45005         0.53480
   H        0.49136        -3.23279         0.23670
   H       -1.15254        -4.28423         1.71958
   H       -2.07917        -2.78757         1.81181
   H        0.81587        -3.11629         2.73009
   H       -0.59753        -3.01397         3.78156
   H       -0.11643        -1.62135         2.81362
   H       -2.34992        -2.93799        -0.82560
   H       -1.42184        -4.43447        -0.73163
   H       -0.64040        -1.95635        -2.34723
   H       -1.29293        -3.45481        -3.00825
   H        0.30248        -3.44381        -2.25477
   H        3.91005         2.93087        -0.47618
   H        5.76739         0.53839        -0.90348
   H        6.18881         2.31230        -0.94014
*
