# ORCA input file
# SCF done        -31.769662636779          0.000313530818
! B3LYP/G D3BJ Opt RIJCOSX def2-SVP def2/J
* xyz 0 1
   C        0.17584         1.07603         0.40332
   S       -0.87393        -0.27405         0.52518
   C        0.44812        -1.36709         0.21884
   C        1.62600        -0.68222         0.02906
   C        1.46563         0.72691         0.14533
   C        2.55719         1.73767        -0.03632
   C        2.73623         2.09425        -1.51341
   C        2.94682        -1.35128        -0.20600
   C        3.58178        -1.78676         1.11667
   C        0.23397        -2.78922         0.19050
   C       -0.92315        -3.39009         0.45245
   H       -0.22302         2.06271         0.53566
   H        3.49540         1.35036         0.36476
   H        2.30135         2.64162         0.52043
   H        2.97822         1.20945        -2.09796
   H        3.53789         2.81952        -1.63365
   H        1.81843         2.52188        -1.91043
   H        3.62019        -0.66411        -0.71907
   H        2.81302        -2.22365        -0.84895
   H        3.73412        -0.92733         1.76606
   H        4.54415        -2.26137         0.93793
   H        2.93563        -2.49213         1.63393
   H        1.10204        -3.38366        -0.06212
   H       -1.80329        -2.82615         0.71405
   H       -1.02593        -4.46017         0.41537
*
