25
 SCF done        -31.769662636779          0.000313530818
C           0.17584438243903    1.07603098900921    0.40331913974560
S          -0.87393350218598   -0.27404682864288    0.52517872371299
C           0.44811618967510   -1.36709322977865    0.21884475896409
C           1.62599825582609   -0.68222471067724    0.02906277132072
C           1.46562551634152    0.72690786675142    0.14532609422378
C           2.55718606001156    1.73767132158505   -0.03632051269186
C           2.73622790144874    2.09424703089792   -1.51341016326545
C           2.94681626986325   -1.35127706535494   -0.20600233395297
C           3.58177684089575   -1.78675854660711    1.11667128220677
C           0.23397463408303   -2.78921818878544    0.19049773242068
C          -0.92314981650438   -3.39009275087252    0.45245052035715
H          -0.22302013641808    2.06271299693868    0.53566388049523
H           3.49539766958014    1.35035571650909    0.36476126501224
H           2.30134580053870    2.64162110147847    0.52042563708238
H           2.97821635363954    1.20945124513127   -2.09796104495252
H           3.53789468309643    2.81951630172052   -1.63365492579979
H           1.81842646531053    2.52188223698275   -1.91042772263406
H           3.62019212144761   -0.66410923039357   -0.71907470649025
H           2.81301784190061   -2.22365481778709   -0.84894537919172
H           3.73411742742073   -0.92733404200122    1.76605990052922
H           4.54415409605361   -2.26136530890994    0.93792900579265
H           2.93563258094581   -2.49213444783670    1.63393122646852
H           1.10203675892435   -3.38366290552466   -0.06212209224517
H          -1.80328657549847   -2.82615475509385    0.71404819492755
H          -1.02592781883510   -4.46016997873850    0.41536874796401
