36
 SCF done        -49.849481807958          0.000186897017
N           1.98891285473347   -1.08533546885104    1.03453611291559
C           2.42395475381796   -0.24178299740165   -0.07171014257247
C           2.85686350695149   -1.06802461400426   -1.25445631137169
C           2.35837313279395   -2.34723444974595   -1.43462831848772
C           2.74466260027036   -3.12255731818393   -2.51878771051838
O           2.28410347512157   -4.38853078581841   -2.76827047071656
C           1.34721469576774   -4.95829016471708   -1.87868044036144
C           0.98583929914073   -6.33673005097718   -2.41216850502774
C           3.66537209309075   -2.60779591310651   -3.43742798507201
C           4.15251343585861   -1.32338097216997   -3.26174594598305
C           3.75626085989132   -0.53955109791274   -2.18557460203566
O           4.18806581878831    0.73897712878236   -1.95596967963110
C           5.06738128758083    1.33693642023173   -2.88533105869559
C           5.32811221570655    2.76189162362050   -2.42052216011877
C           4.09675984479613   -3.44931279608117   -4.60792066481259
N           3.00360219810382   -3.56932404200736   -5.56830677278440
H           1.67967877478784   -0.50603889229318    1.80749825289517
H           2.76855759797674   -1.64744054206724    1.36189251263483
H           3.24751013179248    0.43993342879114    0.19271080250803
H           1.57033401371664    0.37917479346060   -0.36728541718325
H           1.65935047861794   -2.70924837829548   -0.69920797615771
H           0.44946526638308   -4.32758006687999   -1.81992043127405
H           1.78211270659623   -5.04213552726715   -0.87300698550414
H           0.55530930770748   -6.25020254957382   -3.40647918882273
H           0.26459947191498   -6.81128773160055   -1.75314271632728
H           1.87589545188206   -6.95731954721624   -2.47340673043147
H           4.85248308929953   -0.94507305330106   -3.98945111954987
H           4.61290298079579    1.34308751027691   -3.88570263580970
H           6.01136821344608    0.77508795927655   -2.93157488970421
H           4.39192396417289    3.31093975206341   -2.37066626468486
H           5.99901078074695    3.26079330180707   -3.11393972646914
H           5.77767515664783    2.75436493953541   -1.43134736209153
H           4.43315078516547   -4.42843840139723   -4.22449952774427
H           4.93803038116449   -2.97332716150894   -5.11992582791976
H           2.19868137636278   -3.96609744585859   -5.09416905514677
H           3.26780799840559   -4.20871688960646   -6.31135105794267
