# ORCA input file
# SCF done        -49.849481807958          0.000186897017
! B3LYP/G D3BJ Opt RIJCOSX def2-SVP def2/J
* xyz 0 1
   N        1.98891        -1.08534         1.03454
   C        2.42395        -0.24178        -0.07171
   C        2.85686        -1.06802        -1.25446
   C        2.35837        -2.34723        -1.43463
   C        2.74466        -3.12256        -2.51879
   O        2.28410        -4.38853        -2.76827
   C        1.34721        -4.95829        -1.87868
   C        0.98584        -6.33673        -2.41217
   C        3.66537        -2.60780        -3.43743
   C        4.15251        -1.32338        -3.26175
   C        3.75626        -0.53955        -2.18557
   O        4.18807         0.73898        -1.95597
   C        5.06738         1.33694        -2.88533
   C        5.32811         2.76189        -2.42052
   C        4.09676        -3.44931        -4.60792
   N        3.00360        -3.56932        -5.56831
   H        1.67968        -0.50604         1.80750
   H        2.76856        -1.64744         1.36189
   H        3.24751         0.43993         0.19271
   H        1.57033         0.37917        -0.36729
   H        1.65935        -2.70925        -0.69921
   H        0.44947        -4.32758        -1.81992
   H        1.78211        -5.04214        -0.87301
   H        0.55531        -6.25020        -3.40648
   H        0.26460        -6.81129        -1.75314
   H        1.87590        -6.95732        -2.47341
   H        4.85248        -0.94507        -3.98945
   H        4.61290         1.34309        -3.88570
   H        6.01137         0.77509        -2.93157
   H        4.39192         3.31094        -2.37067
   H        5.99901         3.26079        -3.11394
   H        5.77768         2.75436        -1.43135
   H        4.43315        -4.42844        -4.22450
   H        4.93803        -2.97333        -5.11993
   H        2.19868        -3.96610        -5.09417
   H        3.26781        -4.20872        -6.31135
*
