16
 SCF done        -27.061574824465          0.000679540548
C           1.33787412726580   -0.95082022172468   -0.22201288721940
S           1.93639498269703    0.66212025008333   -0.35660315216134
C           0.38616794001768    1.31310804891158   -0.07259601603639
C          -0.55434685074617    0.33762286103341    0.11784421259124
C          -1.91303033163847    0.57700184661138    0.37055803674937
N          -3.03183708422750    0.72720638223512    0.57963929928663
C          -0.00473380970344   -0.99100305612149    0.03188580760910
N          -0.79861168978029   -2.09276090524167    0.19678225986505
C          -0.40124120240973   -3.40865746867849    0.13820936494946
C          -1.22817185578101   -4.43282523137175    0.30737783358421
H           2.02399616960704   -1.76315644757331   -0.34077916351488
H           0.23430325753694    2.37415752298104   -0.05808483308093
H          -1.77779163884434   -1.91909320480814    0.37926128241349
H           0.64997871763157   -3.55428061794559   -0.05820568227595
H          -2.27646948481245   -4.28708239851412    0.50398778067961
H          -0.87648124681265   -5.44468735987660    0.25431585656071
