# ORCA input file
# SCF done        -27.061574824465          0.000679540548
! B3LYP/G D3BJ Opt RIJCOSX def2-SVP def2/J
* xyz 0 1
   C        1.33787        -0.95082        -0.22201
   S        1.93639         0.66212        -0.35660
   C        0.38617         1.31311        -0.07260
   C       -0.55435         0.33762         0.11784
   C       -1.91303         0.57700         0.37056
   N       -3.03184         0.72721         0.57964
   C       -0.00473        -0.99100         0.03189
   N       -0.79861        -2.09276         0.19678
   C       -0.40124        -3.40866         0.13821
   C       -1.22817        -4.43283         0.30738
   H        2.02400        -1.76316        -0.34078
   H        0.23430         2.37416        -0.05808
   H       -1.77779        -1.91909         0.37926
   H        0.64998        -3.55428        -0.05821
   H       -2.27647        -4.28708         0.50399
   H       -0.87648        -5.44469         0.25432
*
