# ORCA input file
# SCF done        -32.781903881916          0.000628138479
! B3LYP/G D3BJ Opt RIJCOSX def2-SVP def2/J
* xyz 0 1
   C        0.80862         1.30004         0.04744
   C        1.40127         0.04740        -0.02068
   C        2.89041        -0.10969        -0.09964
   C        0.58159        -1.07036        -0.00648
   C       -0.80626        -0.96996         0.07491
   C       -1.39192         0.30541         0.14883
   C       -0.56784         1.41883         0.12999
   C       -2.88023         0.47690         0.22323
   C       -1.63262        -2.16700         0.09915
   C       -1.31961        -3.33916        -0.47077
   C       -2.17168        -4.49907        -0.41454
   C       -1.89129        -5.65378        -1.01406
   H        1.42353         2.18861         0.03826
   H        3.38314         0.85902        -0.11785
   H        3.16837        -0.65852        -0.99867
   H        3.25823        -0.67057         0.75902
   H        1.03512        -2.05053        -0.03524
   H       -1.01105         2.40384         0.17994
   H       -3.26693         0.08326         1.16364
   H       -3.37227        -0.05112        -0.59231
   H       -3.14436         1.52982         0.16266
   H       -2.58257        -2.08286         0.61130
   H       -0.40034        -3.44999        -1.02970
   H       -3.08682        -4.39420         0.15586
   H       -0.98931        -5.78600        -1.58933
   H       -2.54863        -6.50384        -0.95307
*
