26
 SCF done        -32.781903881916          0.000628138479
C           0.80862453856840    1.30003988914851    0.04743775305970
C           1.40127284125520    0.04739635990977   -0.02068405142717
C           2.89041268018554   -0.10969130389230   -0.09964398336444
C           0.58158864654099   -1.07036430382273   -0.00648167622932
C          -0.80625793841853   -0.96996202772388    0.07491481317024
C          -1.39191789002266    0.30540512197592    0.14882970021590
C          -0.56784473536288    1.41882758816023    0.12999071198310
C          -2.88023029529170    0.47689571593636    0.22322621284770
C          -1.63262298026479   -2.16699845610154    0.09914536319151
C          -1.31960584057380   -3.33915850206015   -0.47077041488414
C          -2.17168176287050   -4.49906981160480   -0.41453938579051
C          -1.89128518801614   -5.65378269743753   -1.01406105239382
H           1.42353207065439    2.18861325381754    0.03826108251923
H           3.38313772980663    0.85901976943065   -0.11785099501027
H           3.16836968987382   -0.65851500392176   -0.99867054464407
H           3.25822547536076   -0.67056722024648    0.75902151824472
H           1.03512262620783   -2.05053265432930   -0.03524030885557
H          -1.01105322183658    2.40383980623234    0.17994064053501
H          -3.26693113718372    0.08325956183704    1.16363583529268
H          -3.37227282848953   -0.05112470855550   -0.59230834337641
H          -3.14436245468765    1.52982140944026    0.16265831346244
H          -2.58256963154827   -2.08285500482165    0.61130209522948
H          -0.40033975689797   -3.44998824151610   -1.02969749616895
H          -3.08681657549093   -4.39420140013617    0.15585649305972
H          -0.98930726708365   -5.78600383592718   -1.58933494179870
H          -2.54862679441427   -6.50384330379155   -0.95306733886811
