# ORCA input file
# SCF done        -36.827093573588          0.000918283843
! B3LYP/G D3BJ Opt RIJCOSX def2-SVP def2/J
* xyz 0 1
   C        1.50977        -1.27715         0.06991
   S        2.72018        -0.08557         0.18466
   C        1.54837         1.20956         0.13873
   C        0.26298         0.69905         0.06018
   C        0.25713        -0.73539         0.01684
   C       -0.94916        -1.56043        -0.13302
   O       -0.92314        -2.77006        -0.13623
   C       -2.21821        -0.76034        -0.31355
   C       -2.18233         0.53982         0.48420
   C       -1.01639         1.41838         0.07324
   O       -1.17610         2.58555        -0.20386
   C        2.11825         2.53069         0.23902
   C        1.50782         3.70151         0.07129
   H        1.75774        -2.31987         0.03832
   H       -3.07270        -1.37547        -0.02706
   H       -2.31314        -0.53532        -1.38063
   H       -2.07505         0.31274         1.54891
   H       -3.10595         1.10399         0.34479
   H        3.18114         2.51268         0.45544
   H        0.46197         3.77752        -0.16789
   H        2.05930         4.62038         0.17516
*
