21
 SCF done        -36.827093573588          0.000918283843
C           1.50976904337579   -1.27715064282298    0.06990656390947
S           2.72017687303991   -0.08556582526631    0.18466178941730
C           1.54836937292465    1.20956478623732    0.13873355129539
C           0.26297518126837    0.69905137658600    0.06017774523893
C           0.25712619952221   -0.73539281621722    0.01684073125551
C          -0.94915977137970   -1.56043477437359   -0.13302129081546
O          -0.92314200841043   -2.77006451784976   -0.13623495720998
C          -2.21821071745317   -0.76033962607600   -0.31354965039135
C          -2.18233182181526    0.53982247715657    0.48420267680632
C          -1.01639115507174    1.41837883925968    0.07324128654328
O          -1.17609630569763    2.58555141016549   -0.20385858939902
C           2.11824595128267    2.53068758380176    0.23901640081617
C           1.50782066305133    3.70150695924645    0.07129462048258
H           1.75773503307896   -2.31986969365576    0.03832484342683
H          -3.07269798256337   -1.37547165470244   -0.02705636768486
H          -2.31314013106688   -0.53532304310956   -1.38063096003502
H          -2.07504548607298    0.31274292313149    1.54890700802768
H          -3.10594924336239    1.10399183779386    0.34478982452744
H           3.18113651274278    2.51267553252882    0.45544201516968
H           0.46197473215575    3.77751766133909   -0.16789315239487
H           2.05929506045125    4.62038120682704    0.17515591101425
