# ORCA input file
# SCF done        -39.146880329312          0.000299534591
! B3LYP/G D3BJ Opt RIJCOSX def2-SVP def2/J
* xyz 0 1
   C       -1.61684         1.27419        -0.03886
   S       -2.69165        -0.04769        -0.05580
   C       -1.41784        -1.21087        -0.06072
   C       -0.17726        -0.57252        -0.01214
   C       -0.30382         0.86772        -0.01335
   C        0.89223         1.64408         0.02050
   N        0.85680         3.07249        -0.00049
   O       -0.22649         3.62709        -0.03172
   O        1.91966         3.66490         0.01176
   C        2.11534         1.02161         0.08497
   C        2.21679        -0.37509         0.14437
   C        1.09736        -1.16120         0.10271
   C       -1.76773        -2.60524        -0.13150
   C       -1.02640        -3.58418        -0.64584
   H       -1.99938         2.27368        -0.05313
   H        3.00455         1.63354         0.10985
   H        3.19325        -0.82489         0.23205
   H        1.18113        -2.23261         0.18396
   H       -2.76133        -2.83367         0.23441
   H       -0.06379        -3.41180        -1.09331
   H       -1.38648        -4.59784        -0.66094
*
