17
 SCF done        -29.597218133725          0.000476923204
C          -1.55811623295051   -1.21389552938276    0.12597706267301
S          -2.71362070426768    0.04398799840667    0.18285750976052
C          -1.51315727301253    1.24920103478811    0.11606974951172
C          -0.24714792043242    0.70976601504046    0.05152484354818
C          -0.27268666270125   -0.73314269390707    0.05702748110971
C           0.96811072663603   -1.44103148888358   -0.00515636177808
C           1.02729273354759   -2.90115858204530   -0.00674708068675
O           2.04307414738618   -3.55295399215188   -0.04681988986396
C           2.13704064658727   -0.71739292770430   -0.06658219155774
C           2.15003707695870    0.68927293140951   -0.07149711445772
C           0.98636055562314    1.39895168231026   -0.01426649119389
H          -1.89865706917242   -2.22882429385283    0.14739696740883
H          -1.78812842175965    2.28459384890268    0.12763833597019
H           0.04066407368414   -3.40062522113557    0.03119114868724
H           3.06808701919690   -1.26306780414968   -0.11316494450350
H           3.09820837841939    1.20284008891409   -0.12201053645781
H           0.98449892625711    2.47859893344119   -0.01793848816994
