# ORCA input file
# SCF done        -29.597218133725          0.000476923204
! B3LYP/G D3BJ Opt RIJCOSX def2-SVP def2/J
* xyz 0 1
   C       -1.55812        -1.21390         0.12598
   S       -2.71362         0.04399         0.18286
   C       -1.51316         1.24920         0.11607
   C       -0.24715         0.70977         0.05152
   C       -0.27269        -0.73314         0.05703
   C        0.96811        -1.44103        -0.00516
   C        1.02729        -2.90116        -0.00675
   O        2.04307        -3.55295        -0.04682
   C        2.13704        -0.71739        -0.06658
   C        2.15004         0.68927        -0.07150
   C        0.98636         1.39895        -0.01427
   H       -1.89866        -2.22882         0.14740
   H       -1.78813         2.28459         0.12764
   H        0.04066        -3.40063         0.03119
   H        3.06809        -1.26307        -0.11316
   H        3.09821         1.20284        -0.12201
   H        0.98450         2.47860        -0.01794
*
