# ORCA input file
# SCF done        -52.282131244255          0.000900108962
! B3LYP/G D3BJ Opt RIJCOSX def2-SVP def2/J
* xyz 0 1
   C       -3.28772         2.89430        -1.51543
   S       -4.25994         1.67228        -0.81971
   C       -2.86099         0.79938        -0.25482
   C       -1.71093         1.44648        -0.65189
   C       -1.95999         2.65737        -1.36937
   C       -0.87577         3.56269        -1.86238
   C       -0.15285         4.24613        -0.70109
   O       -0.39738         1.11288        -0.42494
   C        0.02383        -0.24040        -0.47507
   C       -0.48647        -0.94447        -1.71933
   S       -0.56639         0.33480        -3.06145
   O       -0.27701        -0.59012        -4.34479
   O       -2.25054         0.10101        -3.31998
   O        1.21676         0.55400        -2.96241
   C       -3.05256        -0.40106         0.51763
   C       -4.23281        -0.97313         0.74135
   H       -3.75560         3.71739        -2.01748
   H       -1.31487         4.31522        -2.51908
   H       -0.16105         2.97604        -2.44375
   H        0.27966         3.49915        -0.04152
   H       -0.84999         4.85274        -0.12756
   H        0.64104         4.88856        -1.07462
   H       -0.25568        -0.77884         0.43909
   H        1.11469        -0.16971        -0.50084
   H       -1.49155        -1.33134        -1.58642
   H        0.19240        -1.72230        -2.04893
   H        0.67040        -0.54772        -4.51010
   H       -2.50270        -0.69359        -3.79081
   H        1.43192         1.24313        -2.33560
   H       -2.16643        -0.83433         0.96025
   H       -5.14175        -0.56420         0.33293
   H       -4.32287        -1.85977         1.34403
*
