# ORCA input file
# SCF done        -29.606006736325          0.000761103166
! B3LYP/G D3BJ Opt RIJCOSX def2-SVP def2/J
* xyz 0 1
   C       -1.60885         1.24953        -0.09992
   S       -2.89915         0.23214         0.38947
   C       -1.87477        -1.14698         0.33560
   C       -0.60937        -0.83923        -0.06013
   C       -0.45551         0.56083        -0.32010
   O        0.68157         1.15864        -0.79433
   C        1.72675         1.31474         0.14619
   C        2.16491        -0.00553         0.79264
   C        2.17524        -1.12922        -0.23472
   S        0.61489        -2.09026        -0.24397
   H       -1.76542         2.30107        -0.23224
   H       -2.26258        -2.11495         0.57825
   H        1.43329         2.03357         0.92458
   H        2.54670         1.74149        -0.43703
   H        1.49143        -0.26445         1.61308
   H        3.16248         0.13126         1.21347
   H        2.93313        -1.87763        -0.00644
   H        2.34286        -0.74300        -1.24014
*
