15
 SCF done        -22.539340409013          0.000334316556
C           0.00419541499739    1.26297835842942   -0.27372908128572
S          -1.06835689653202   -0.09229790026924   -0.20963487948704
C           0.26361767518951   -1.17125300689105    0.11161770669159
C           1.44884141560087   -0.49324671411877    0.15983030291127
C           1.28850312447383    0.89409366831891   -0.06147415833051
N          -0.00278439924402   -2.50455219651938    0.27198751681784
C           0.91688251818398   -3.49230331125134    0.52991942498847
C           0.59845591841253   -4.77377858286916    0.67708914738898
H          -0.39919834734752    2.23629861745212   -0.46482238341135
H           2.40240135388989   -0.95160581363484    0.34426442573736
H           2.11034871924588    1.58807497532694   -0.06056751615703
H          -0.96796310745652   -2.79012513739964    0.19400881852724
H           1.93689458417674   -3.14968459695266    0.60682378541186
H          -0.41878541690624   -5.11784242537962    0.60147681757376
H           1.35007744331570   -5.51213593424168    0.87830007262328
