# ORCA input file
# SCF done        -22.539340409013          0.000334316556
! B3LYP/G D3BJ Opt RIJCOSX def2-SVP def2/J
* xyz 0 1
   C        0.00420         1.26298        -0.27373
   S       -1.06836        -0.09230        -0.20963
   C        0.26362        -1.17125         0.11162
   C        1.44884        -0.49325         0.15983
   C        1.28850         0.89409        -0.06147
   N       -0.00278        -2.50455         0.27199
   C        0.91688        -3.49230         0.52992
   C        0.59846        -4.77378         0.67709
   H       -0.39920         2.23630        -0.46482
   H        2.40240        -0.95161         0.34426
   H        2.11035         1.58807        -0.06057
   H       -0.96796        -2.79013         0.19401
   H        1.93689        -3.14968         0.60682
   H       -0.41879        -5.11784         0.60148
   H        1.35008        -5.51214         0.87830
*
