20
 SCF done        -30.272555091108          0.000566659903
N          -1.14122442914130    1.34117852135359   -0.16747527957911
C           0.11376665458914    0.77230296579680    0.27249052896928
C           1.35776983648169    1.53070045148613   -0.15337447703314
S           2.72298184563847    0.35769557176764    0.19603394398544
C           1.69345745834561   -1.05786119586571    0.18027337377453
S           2.16058890576702   -2.54122925337095    0.63090210649272
C           0.32361383565488   -0.66140986519739   -0.27080495520614
N          -0.74165736229882   -1.56371395863339    0.08649767899081
C          -2.02585652140816   -0.99470235498481   -0.29456399178961
C          -2.23209455472598    0.44632690226166    0.21017949467366
H          -1.13159796800883    1.46003619072647   -1.17810858943351
H           0.07623950174473    0.72567015246712    1.37027983855604
H           1.53234592325815    2.44268415346597    0.41125994982796
H           1.34999675335483    1.75413565315137   -1.22114496035896
H           0.33926252985208   -0.60681534268592   -1.37409611870409
H          -0.70872182074092   -1.77948244386545    1.07762083637754
H          -2.81533100860176   -1.64404239820896    0.08448250574224
H          -2.06919474684367   -1.00405621104513   -1.38995465899922
H          -2.28859775740314    0.45179216774235    1.30343348477023
H          -3.16203707551402    0.85617029363863   -0.18586071105668
