# ORCA input file
# SCF done        -45.206060614806          0.000372175948
! B3LYP/G D3BJ Opt RIJCOSX def2-SVP def2/J
* xyz 0 1
   C        3.13500        -0.68796         0.00489
   N        2.76922         0.52989        -0.00533
   C        1.40960         0.65783         0.00081
   C        0.72379        -0.58037         0.01274
   S        1.85933        -1.89301         0.02301
   C       -0.65198        -0.58949         0.00239
   C       -1.34453         0.61967        -0.01030
   C       -0.67551         1.85281        -0.00073
   C        0.71509         1.87300        -0.01080
   C        1.53026         3.13508         0.01744
   C        1.81658         3.55830         1.45976
   C       -1.49783         3.11610        -0.01720
   C       -1.87984         3.51040        -1.44639
   N       -2.71921         0.46924         0.03957
   C       -3.18594        -0.87866        -0.15453
   S       -1.72793        -1.98398         0.00139
   H        4.15966        -1.00370         0.00228
   H        1.02230         3.93967        -0.51397
   H        2.47934         2.93667        -0.48115
   H        0.89160         3.72404         2.00833
   H        2.40040         4.47570         1.47500
   H        2.38029         2.77910         1.96608
   H       -0.94003         3.93162         0.43971
   H       -2.40026         2.96697         0.58010
   H       -0.98646         3.70550        -2.03497
   H       -2.49522         4.40744        -1.44260
   H       -2.43425         2.71448        -1.94015
   H       -3.28398         1.18907        -0.38334
   H       -3.63834        -1.03928        -1.14324
   H       -3.90888        -1.15751         0.61844
*
