# ORCA input file
# SCF done        -65.475821811263          0.000816789928
! B3LYP/G D3BJ Opt RIJCOSX def2-SVP def2/J
* xyz 0 1
   C        3.05540        -0.17958         0.30008
   S        2.17056        -1.66314         0.29199
   C        0.66161        -0.79793         0.22063
   C        0.85323         0.59721         0.20922
   C        2.24832         0.90333         0.25388
   F        2.72482         2.15446         0.25263
   C       -0.24009         1.48518         0.15556
   O        0.08553         2.78950         0.12773
   C       -0.89372         3.80768         0.21515
   C       -0.15003         5.13111         0.29599
   C       -1.50272         0.89946         0.13527
   C       -1.68938        -0.50930         0.16430
   C       -0.59463        -1.38671         0.19194
   O       -0.71581        -2.74648         0.25730
   C       -1.05718        -3.40737        -0.95611
   C        0.08743        -3.40705        -1.96218
   C       -3.07685        -0.83928         0.18341
   F       -3.49801        -2.11239         0.24763
   C       -3.94126         0.21448         0.14540
   S       -3.05531         1.71585         0.08783
   C       -5.38212         0.26093         0.14789
   C       -6.19171        -0.79246         0.21315
   H        4.12589        -0.19137         0.33932
   H       -1.50976         3.66352         1.11025
   H       -1.54294         3.78710        -0.66866
   H        0.50437         5.13464         1.16313
   H       -0.85990         5.94864         0.37741
   H        0.45845         5.26817        -0.59260
   H       -1.94875        -2.95520        -1.40581
   H       -1.29790        -4.42610        -0.64631
   H        0.31060        -2.39287        -2.28854
   H       -0.19140        -3.99959        -2.82920
   H        0.98105        -3.83168        -1.51177
   H       -5.79211         1.26097         0.09208
   H       -5.82556        -1.80173         0.27508
   H       -7.26017        -0.66656         0.21037
*
