24
 SCF done        -41.610542162992          0.000512694261
C           1.69953770238744    1.19546241165344   -0.03953726329606
S           2.91081275485075   -0.02816090268627   -0.05366221898086
C           1.71906031468596   -1.26558634459251   -0.06462814258150
C           0.45290153902167   -0.75620647770730   -0.04106097227464
C           0.43269145893624    0.68275965066762   -0.04885591459195
N          -0.75602190234723    1.38159327481321   -0.06098720505281
C          -1.97933825658499    0.61785025321637    0.07280946580654
C          -1.84342250771325   -0.71993844731155   -0.65192027745737
N          -0.74876716141622   -1.46919234828418   -0.06668209854429
C          -1.02700381028059   -2.64850715907276    0.58969325176905
O          -2.09777996232004   -3.18533446485424    0.50189401892943
O          -0.03876194145318   -3.15553646809418    1.33695251558797
C          -0.79044919992773    2.75861109398907   -0.13903592815434
C          -1.83651548203732    3.53833391937742    0.11201712078830
H           2.01425260516855    2.21736204214208   -0.01704788975553
H           2.03310964917960   -2.28805206154984   -0.13873273568856
H          -2.79375843785981    1.18880538281683   -0.37549062061467
H          -2.21369935806451    0.43920700671324    1.13106889727530
H          -1.63952027400928   -0.55204029710279   -1.71431576074480
H          -2.74936856943659   -1.31721328487251   -0.54369411572985
H           0.71349002236155   -2.55006226321185    1.42182121251755
H           0.14562427796323    3.19606132372372   -0.45196593096970
H          -2.78826778435609    3.17205961607976    0.45094569175316
H          -1.75405567674840    4.60094454414705   -0.01731509999036
