# ORCA input file
# SCF done        -41.610542162992          0.000512694261
! B3LYP/G D3BJ Opt RIJCOSX def2-SVP def2/J
* xyz 0 1
   C        1.69954         1.19546        -0.03954
   S        2.91081        -0.02816        -0.05366
   C        1.71906        -1.26559        -0.06463
   C        0.45290        -0.75621        -0.04106
   C        0.43269         0.68276        -0.04886
   N       -0.75602         1.38159        -0.06099
   C       -1.97934         0.61785         0.07281
   C       -1.84342        -0.71994        -0.65192
   N       -0.74877        -1.46919        -0.06668
   C       -1.02700        -2.64851         0.58969
   O       -2.09778        -3.18533         0.50189
   O       -0.03876        -3.15554         1.33695
   C       -0.79045         2.75861        -0.13904
   C       -1.83652         3.53833         0.11202
   H        2.01425         2.21736        -0.01705
   H        2.03311        -2.28805        -0.13873
   H       -2.79376         1.18881        -0.37549
   H       -2.21370         0.43921         1.13107
   H       -1.63952        -0.55204        -1.71432
   H       -2.74937        -1.31721        -0.54369
   H        0.71349        -2.55006         1.42182
   H        0.14562         3.19606        -0.45197
   H       -2.78827         3.17206         0.45095
   H       -1.75406         4.60094        -0.01732
*
