# ORCA input file
# SCF done        -36.786813281013          0.000526786793
! B3LYP/G D3BJ Opt RIJCOSX def2-SVP def2/J
* xyz 0 1
   C        0.07400         1.16329         0.11690
   S       -0.91561        -0.23416         0.24351
   C        0.38068        -1.24898        -0.24454
   C        1.51683        -0.54287        -0.49000
   N        2.71477        -1.08800        -0.98927
   O        2.69776        -2.49384        -0.91813
   O        3.86077        -0.61394        -0.33625
   C        1.33884         0.86163        -0.28022
   N        2.41300         1.76504        -0.36646
   O        3.03352         1.74668        -1.65413
   O        1.97841         3.07468        -0.12328
   H       -0.31679         2.13201         0.34823
   H        0.24044        -2.30622        -0.33282
   H        3.15685        -2.80522        -1.71103
   H        3.80376        -0.77024         0.62262
   H        3.77845         1.13480        -1.55802
   H        2.77865         3.57842         0.08398
*
