# ORCA input file
# SCF done        -38.752602085682          0.000673646408
! B3LYP/G D3BJ Opt RIJCOSX def2-SVP def2/J
* xyz 0 2
   C        1.58359         1.01469         0.49228
   C        1.60528        -0.34678         0.25348
   O        2.76156        -1.05376         0.38432
   C        2.73797        -2.36183        -0.14160
   C        1.57633        -3.18502         0.39238
   S        0.01258        -2.57032        -0.31696
   C        0.33438        -0.86286        -0.06532
   C       -0.66565         0.10723        -0.10389
   S        0.02637         1.68538         0.24976
   N        0.12249         2.26053        -1.48635
   C        0.65991         3.59162        -1.63257
   C       -2.05870        -0.07749        -0.30172
   C       -2.99023         0.88110        -0.23497
   H        2.39798         1.60317         0.85663
   H        3.69129        -2.80467         0.16014
   H        2.68927        -2.32783        -1.23946
   H        1.51864        -3.11211         1.47928
   H        1.66396        -4.22665         0.09200
   H       -0.81834         2.19647        -1.86334
   H        1.64657         3.61001        -1.17069
   H        0.04186         4.37635        -1.17877
   H        0.77020         3.80692        -2.69580
   H       -2.34528        -1.09645        -0.53212
   H       -2.73270         1.90082         0.00291
   H       -4.03084         0.66889        -0.39534
*
