# ORCA input file
# SCF done        -46.302596673076          0.000708063772
! B3LYP/G D3BJ Opt RIJCOSX def2-SVP def2/J
* xyz 0 1
   C        1.20982         0.28834        -0.00663
   C        0.79352        -0.99907        -0.00333
   N        1.62886        -2.15126         0.00029
   O        2.82824        -1.96733        -0.00080
   O        1.08435        -3.23477         0.00491
   C       -0.66989        -1.05031        -0.00436
   C       -1.12735         0.21345        -0.00915
   C        0.01368         1.12221        -0.01100
   C       -0.01492         2.48300        -0.01443
   C        1.12600         3.39189        -0.01103
   C        0.66839         4.65560        -0.01518
   C       -0.79499         4.60420        -0.02177
   N       -1.63053         5.75624        -0.02888
   O       -2.82987         5.57207        -0.03222
   O       -1.08623         6.83987        -0.02918
   C       -1.21116         3.31674        -0.02073
   H        2.22380         0.63592        -0.00719
   H       -1.22715        -1.96716        -0.00150
   H       -2.15136         0.52967        -0.01074
   H        2.15005         3.07582        -0.00544
   H        1.22555         5.57253        -0.01404
   H       -2.22509         2.96906        -0.02502
*
