# ORCA input file
# SCF done        -37.135126159842          0.000349020039
! B3LYP/G D3BJ Opt RIJCOSX def2-SVP def2/J
* xyz 0 1
   N        2.33424         1.47613        -0.02831
   C        1.13642         0.84261        -0.54685
   C        1.26927        -0.72258        -0.39624
   N        0.07632        -1.32190         0.16885
   C       -1.13807        -0.82777        -0.45668
   C       -1.24284         0.73535        -0.39517
   C       -2.46021         1.11327         0.43953
   S       -3.68314        -0.19084         0.13126
   C       -2.36504        -1.43809         0.21737
   N       -0.03392         1.33544         0.14225
   N        2.36841        -0.91633         0.52526
   S        3.54878         0.29408         0.08567
   H        2.15097         1.91167         0.87117
   H        1.03459         1.10575        -1.60821
   H        1.43606        -1.17710        -1.38727
   H        0.06515        -1.14721         1.17139
   H       -1.09541        -1.14337        -1.50500
   H       -1.36559         1.12780        -1.41087
   H       -2.88195         2.07298         0.15623
   H       -2.22604         1.12270         1.50626
   H       -2.70765        -2.34499        -0.27180
   H       -2.16490        -1.65365         1.26871
   H        0.04770         1.11944         1.13551
   H        2.76994        -1.84433         0.48086
*
