18
 SCF done        -34.729260454460          0.000649247954
C           1.28112511793187   -1.28907206500102    0.27642103628246
S           2.58741000158697   -0.16848664236527    0.25171371688664
C           1.51611849318417    1.16612641884468   -0.01347857525430
C           0.23746113362549    0.74734760102478   -0.07231312522070
C           0.08343461903320   -0.66035049948326    0.09210004246391
C          -1.27687559592699   -1.12918529167223    0.03216296860320
C          -2.20228777683739   -0.17718713389765   -0.16995572195355
S          -1.39795342307267    1.44814587248226   -0.30574044586035
O          -1.53206160668233    1.98802444993534   -1.62992954572810
O          -1.74707202761456    2.29750028769241    0.79841457915254
C          -3.62372239469235   -0.29048625120300   -0.27961157301034
C          -4.40997196607305    0.76526912946299   -0.48205700863003
H           1.47694597821597   -2.33197994982643    0.42558320318756
H           1.91037559376346    2.15763253436605   -0.10463294496429
H          -1.50580919498443   -2.17821097964203    0.14529494912345
H          -4.03653730401737   -1.28893740360573   -0.18843493329381
H          -3.99577238422644    1.75452558500221   -0.57276366799875
H          -5.47876726321358    0.66679433788613   -0.56212295378549
