11
 SCF done        -21.628292856300          0.000806754733
C           1.59250899026836   -0.92539939411097    0.00118987788012
S           2.35511179234957    0.62293884075491    0.00109056764915
C           0.24491776286457   -0.78346700715420    0.00288903884920
S          -1.14272524927650   -1.82719240155050    0.00133094847756
C          -2.14022492477038   -0.36739977490664    0.00813844015025
N          -1.54531325547112    0.75463507905738    0.00631191392061
C          -0.18955789657844    0.59237314858443    0.00459225873943
C           0.85794647487301    1.46451984428279    0.00364515356936
H           2.18595416130534   -1.81608122019248   -0.00085271681461
H          -3.20795476519200   -0.47130312691406    0.00794026228726
H           0.83798690962758    2.53445601214931    0.00421425529167
