# ORCA input file
# SCF done        -21.628292856300          0.000806754733
! B3LYP/G D3BJ Opt RIJCOSX def2-SVP def2/J
* xyz 0 1
   C        1.59251        -0.92540         0.00119
   S        2.35511         0.62294         0.00109
   C        0.24492        -0.78347         0.00289
   S       -1.14273        -1.82719         0.00133
   C       -2.14022        -0.36740         0.00814
   N       -1.54531         0.75464         0.00631
   C       -0.18956         0.59237         0.00459
   C        0.85795         1.46452         0.00365
   H        2.18595        -1.81608        -0.00085
   H       -3.20795        -0.47130         0.00794
   H        0.83799         2.53446         0.00421
*
