# ORCA input file
# SCF done        -33.020548503063          0.000647030830
! B3LYP/G D3BJ Opt RIJCOSX def2-SVP def2/J
* xyz 0 1
   C        0.69958        -1.88974         0.01328
   C        1.38384        -0.68835         0.00145
   C        0.68041         0.51243        -0.00756
   S        1.69155         1.93979        -0.02388
   C        3.23696         0.94467         0.01068
   C        2.87815        -0.54457        -0.00868
   C       -0.70556         0.50213        -0.00513
   C       -1.39110        -0.70894         0.00614
   C       -2.88741        -0.58743         0.00388
   C       -3.26844         0.89642         0.00808
   S       -1.73777         1.91437        -0.01642
   C       -0.68904        -1.90006         0.01565
   H        1.24964        -2.81818         0.02009
   H        3.77662         1.22789         0.91332
   H        3.82533         1.24060        -0.85639
   H        3.30445        -1.05108         0.86056
   H        3.28639        -1.02458        -0.90163
   H       -3.29983        -1.08995         0.88214
   H       -3.29479        -1.08399        -0.88028
   H       -3.82304         1.17839         0.90192
   H       -3.85066         1.17699        -0.86825
   H       -1.22523        -2.83656         0.02443
*
