# ORCA input file
# SCF done        -33.924998983562          0.000657061288
! B3LYP/G D3BJ Opt RIJCOSX def2-SVP def2/J
* xyz 0 1
   C        1.53565        -1.28177        -0.00851
   S        2.75807        -0.08018        -0.00951
   C        1.56359         1.19039         0.06926
   C        0.29256         0.66693         0.07379
   C        0.28208        -0.75287         0.03020
   C       -0.97170        -1.58030        -0.00626
   C       -1.12094        -2.24109        -1.38149
   C       -2.18872        -0.71718         0.34248
   C       -2.15196         0.61900        -0.39107
   C       -0.97608         1.45886         0.10175
   C        2.04899         2.54692         0.10565
   C        1.39231         3.62823         0.51690
   H        1.81521        -2.31663        -0.03270
   H       -0.88430        -2.38138         0.73799
   H       -1.17417        -1.49229        -2.16785
   H       -2.02526        -2.84501        -1.41433
   H       -0.26815        -2.88399        -1.58520
   H       -2.20024        -0.52766         1.41871
   H       -3.10076        -1.26110         0.08916
   H       -3.08339         1.16295        -0.22084
   H       -2.05746         0.45001        -1.46496
   H       -1.17344         1.78174         1.12989
   H       -0.86630         2.35495        -0.51372
   H        3.07677         2.65090        -0.22288
   H        0.39043         3.59513         0.90331
   H        1.86312         4.59609         0.49700
*
