# ORCA input file
# SCF done        -37.647906261623          0.000860298588
! B3LYP/G D3BJ Opt RIJCOSX def2-SVP def2/J
* xyz 0 1
   C        1.35575         1.59755        -0.95662
   C        2.43411         0.64534        -0.54365
   C        3.08873         0.67475         0.61693
   O        4.09342        -0.25500         0.76993
   C        4.72525        -0.48850         2.00379
   C        3.89363        -1.29036         3.01325
   C        2.86671        -0.47274         3.81953
   O        1.74108        -0.13755         3.01898
   C        1.64633         1.19979         2.61208
   C        2.79319         1.67451         1.69955
   C        2.37688        -1.30676         4.97247
   C        2.71716        -1.10771         6.23087
   H        1.06812         1.40982        -1.98766
   H        1.68979         2.63402        -0.88008
   H        0.46887         1.48822        -0.33274
   H        2.71539        -0.11855        -1.25183
   H        5.09044         0.43992         2.46412
   H        5.60026        -1.08579         1.72678
   H        4.58032        -1.75989         3.72020
   H        3.35553        -2.07248         2.47547
   H        3.34321         0.43774         4.21061
   H        1.58203         1.86665         3.48768
   H        0.70088         1.24620         2.06755
   H        3.68509         1.87029         2.29633
   H        2.48925         2.61697         1.24297
   H        1.70010        -2.09897         4.68865
   H        3.38537        -0.31261         6.52099
   H        2.34996        -1.73327         7.02629
*
