20
 SCF done        -31.936024921368          0.000889644136
C          -1.53460488437824    1.27126489554611   -0.05846360641824
S          -2.69685916658822    0.02564243755796   -0.08495150170965
C          -1.49584021515516   -1.22065928591694   -0.00411167497144
C          -0.22038907867971   -0.66425274495150    0.00629221696293
C          -0.25120850075558    0.77440229343664   -0.01301416132919
C           0.95360591314580    1.51558729524916    0.00995634736709
C           2.13965640475931    0.84359921539412    0.02326457371570
S           3.69869040457110    1.67660069844251    0.06125286247562
C           2.18029794515232   -0.57456670725412   -0.01540251960615
C           1.03833302209077   -1.31139379097964   -0.02618437217896
C          -1.94916147906723   -2.58446669686457    0.05763649594723
C          -1.29153356002997   -3.61715711701678    0.58151759270094
H          -1.84590257735496    2.29650452603116   -0.07235728184033
H           0.90780123816444    2.59496408864804    0.00968088366072
H           3.20171331092764    2.91158691556819    0.09634416774692
H           3.14677430694960   -1.05444996208191   -0.04316244602771
H           1.08718488657629   -2.38614173046884   -0.08645509819069
H          -2.95036049789126   -2.73853235525384   -0.32936838970878
H          -0.32526568430434   -3.51688947656108    1.04261974000116
H          -1.72326178813254   -4.60258249852474    0.58444617140285
