# ORCA input file
# SCF done        -41.134096779863          0.000441009004
! B3LYP/G D3BJ Opt RIJCOSX def2-SVP def2/J
* xyz 0 1
   C        1.24682         0.51704         0.10733
   C       -0.09613         0.83545         0.13727
   C       -0.61516         2.17519         0.15955
   O        0.04875         3.18383         0.17158
   C       -2.16877         2.28237         0.15828
   F       -2.71480         1.65311         1.21360
   F       -2.57873         3.54548         0.19646
   F       -2.70093         1.72154        -0.94212
   S       -1.08300        -0.59690         0.13855
   C        0.30495        -1.57607         0.10222
   C        1.49054        -0.86844         0.08512
   C        2.78917        -1.51683         0.04630
   C        3.95606        -0.88805        -0.02302
   H        2.00344         1.27965         0.10360
   H        0.19587        -2.64395         0.09293
   H        2.75683        -2.59798         0.07308
   H        4.03312         0.18476        -0.05698
   H        4.88297        -1.43340        -0.05096
*
