# ORCA input file
# SCF done        -48.901644360689          0.000206274680
! B3LYP/G D3BJ Opt RIJCOSX def2-SVP def2/J
* xyz 0 1
   C       -2.85252         0.26224         0.20116
   C       -3.04671        -1.07152         0.26214
   S       -1.57940        -1.98680         0.22090
   C       -0.65905        -0.51732         0.12020
   C       -1.47330         0.62384         0.11696
   C       -0.89208         1.90802         0.02081
   C       -1.83002         3.08548        -0.04796
   C       -2.33266         3.28759        -1.47952
   C        0.48282         2.04166        -0.06678
   C        1.11845         3.40196        -0.18348
   C        1.37375         4.01224         1.19722
   C        1.30948         0.89008        -0.03483
   C        2.74381         0.76990        -0.13299
   C        3.14697        -0.52780        -0.14950
   S        1.87223        -1.67800        -0.02026
   C        0.71751        -0.38359         0.03701
   C        3.74467         1.83663        -0.18511
   C        4.73248         1.86020        -1.06816
   H       -3.66358         0.96729         0.21377
   H       -3.97763        -1.59997         0.32931
   H       -1.34479         3.99640         0.29702
   H       -2.68103         2.90592         0.61099
   H       -1.49975         3.48311        -2.15162
   H       -3.02088         4.12879        -1.52623
   H       -2.84715         2.39656        -1.83171
   H        0.47894         4.06977        -0.76049
   H        2.05979         3.31230        -0.72592
   H        0.43658         4.18362         1.72221
   H        1.89571         4.96224         1.10236
   H        1.97411         3.34279         1.80925
   H        4.15865        -0.88115        -0.19844
   H        3.68441         2.59781         0.58033
   H        4.81445         1.11824        -1.84497
   H        5.48277         2.63230        -1.05885
*
