34
 SCF done        -48.901644360689          0.000206274680
C          -2.85251713776028    0.26223942918567    0.20116269779705
C          -3.04671388387787   -1.07152248018875    0.26213649702786
S          -1.57939741121640   -1.98680311026697    0.22089825524925
C          -0.65904839147238   -0.51732215737413    0.12019858098653
C          -1.47330460616438    0.62384129816688    0.11696242894445
C          -0.89208440229706    1.90801917668892    0.02080991249646
C          -1.83002250241662    3.08548198346747   -0.04795928991106
C          -2.33265911978270    3.28758570227871   -1.47952301414148
C           0.48281601647257    2.04165992530436   -0.06677751288295
C           1.11845145674477    3.40195957626425   -0.18347575976068
C           1.37374653886433    4.01224350712681    1.19722493634874
C           1.30947765078434    0.89008204222745   -0.03482756393792
C           2.74380761604481    0.76990353891206   -0.13299342199826
C           3.14697493750496   -0.52780296026450   -0.14950378721915
S           1.87223156872318   -1.67800024691782   -0.02026046930654
C           0.71750662139875   -0.38359411954198    0.03700953620288
C           3.74466917109391    1.83662590133660   -0.18511072392131
C           4.73247662414857    1.86019777621187   -1.06815619838640
H          -3.66358430609769    0.96728719068843    0.21377262808142
H          -3.97763025858221   -1.59996797361835    0.32930951957558
H          -1.34478872775309    3.99639753972252    0.29701780027103
H          -2.68103449674742    2.90591748577530    0.61098921341230
H          -1.49974613205733    3.48310944131692   -2.15162498182463
H          -3.02088041945947    4.12879150321720   -1.52622958556800
H          -2.84714794003327    2.39655511298514   -1.83170529073384
H           0.47893963811544    4.06976669558601   -0.76048511890577
H           2.05979317976357    3.31229687838687   -0.72591959526570
H           0.43658270986640    4.18362117745413    1.72220980770058
H           1.89570935422400    4.96224436022507    1.10236349626660
H           1.97410985416535    3.34279311042000    1.80925386948140
H           4.15865395243998   -0.88114569342649   -0.19844240081147
H           3.68440770902352    2.59780511218370    0.58033183281885
H           4.81445423631810    1.11823791805799   -1.84497213944700
H           5.48277090002199    2.63229535840895   -1.05885415863922
