30
 SCF done        -39.196406042745          0.000986175592
C           1.40995732333326    1.35408378523159    0.02690267104178
S           2.63713414092626    0.20919801466269    0.40993212624990
C           1.45984447067496   -1.03864436498461    0.54917028659150
C           0.19890395614218   -0.59147521153930    0.31208777458738
C           0.17102916742110    0.79896948169784    0.00572759440563
C          -1.09846647126633    1.50386586190156   -0.34580710315961
C          -2.31035694743872    0.77369431262530    0.24003197759309
C          -2.36608519944328    0.95436181440384    1.75556724736898
C          -2.28068282024859   -0.71861472607745   -0.15608820708804
C          -1.04234763420327   -1.42028502502430    0.41578015262208
C          -2.41041578731757   -0.85394749835851   -1.65546958353944
C          -1.36202703498760   -1.02921406257173   -2.46056464466845
C          -3.74311001975750   -0.76626290562323   -2.24398873987079
C          -4.89946699402032   -0.60350564696372   -1.61128821846270
H           1.68375772183682    2.37251789604775   -0.16492990907426
H           1.77413075221723   -2.03202562526712    0.80151660339801
H          -1.19268990718028    1.53353008719981   -1.43610550885004
H          -1.06995572041613    2.53579438333710    0.01056862020053
H          -3.21420867172405    1.21587022797216   -0.19350743204048
H          -1.42797625544292    0.65707837413137    2.21719682920062
H          -3.17087019877930    0.36143620733641    2.18614573497721
H          -2.54535083882186    1.99932268532092    1.99977097655137
H          -3.15521817039703   -1.20195804903928    0.29132404988565
H          -0.90008811574029   -2.38020742897841   -0.08668243125846
H          -1.22075599357813   -1.63987187159907    1.47313653314230
H          -0.35160103282236   -1.09551117328164   -2.09823066787100
H          -1.48681481470165   -1.10968871962949   -3.52828348387706
H          -3.75492541948335   -0.84945655877534   -3.32444491003757
H          -4.98404768892852   -0.51303710798598   -0.54187843401075
H          -5.82684579585326   -0.55452715616936   -2.15608990400672
