29
 SCF done        -37.089900207283          0.000799748131
C           1.54577680208035   -1.25758574833552    0.05968319739028
S           2.77475588316198   -0.06749729970905    0.05574137517562
C           1.59138876172648    1.21855953218177    0.04015417537525
C           0.31372976036497    0.70374712644549    0.04271088151327
C           0.29637224966310   -0.71660437605220    0.04758456974966
C          -0.95325620122170   -1.54686024666858   -0.01978618722378
C          -1.09795097652471   -2.14248328419791   -1.42525864907887
C          -2.17261603784875   -0.70722326680805    0.36842679940351
C          -2.15387676176624    0.65289287267544   -0.31942915470743
C          -0.95457691985009    1.50371157408374    0.11252705836699
C          -1.13765754742863    2.04994923066284    1.53403332560890
C           2.13803800584136    2.55179702312846    0.00341537919481
C           1.51134277747004    3.72490066869293   -0.05603826628101
H           1.81457087529744   -2.29569745661204    0.07064655266667
H          -0.85933210201454   -2.38159210824717    0.68540810238914
H          -1.14984307188663   -1.35753544409621   -2.17542314043549
H          -2.00126892272360   -2.74540171707688   -1.48895231859097
H          -0.24329166785874   -2.77354258307521   -1.65664484116868
H          -2.18469532392096   -0.56751418052218    1.45066967254963
H          -3.08316376599940   -1.24513649943445    0.09657680451689
H          -3.07415756088116    1.19398904828576   -0.08869525821790
H          -2.11911041019144    0.50981039420554   -1.40116585095699
H          -0.88177712470755    2.35081894455295   -0.57758756445732
H          -1.21463931069807    1.23629857024599    2.25053449816932
H          -2.04142025259293    2.65297840182992    1.59404276751358
H          -0.28739442153810    2.66495289792670    1.81752757862307
H           3.22175854462496    2.55749764216422    0.01532918526606
H           0.44378444988669    3.83615435778416   -0.07694843226127
H           2.07977026953578    4.63897592596953   -0.09121226009294
