42
 SCF done        -66.040357580357          0.000340269094
C          -3.52521181594903   -0.91731650470796   -0.61165252906308
C          -3.55873206793565   -1.79978481511012    0.45974201967738
C          -2.63525562892387   -1.71652766830219    1.48762352080522
C          -1.65107440076274   -0.73429571830856    1.48237389546128
C          -1.61722990063275    0.15554940858797    0.43317822783271
C          -2.54460664246470    0.05546969182101   -0.60945236750044
N          -2.29307739503663    1.04063045104113   -1.55386623808245
C          -3.04917515356966    1.23658948624773   -2.76015720231244
C          -1.23351250604818    1.82610448497587   -1.19287300717182
O          -0.80957062836067    2.75559414787277   -1.83907293632685
C          -0.73529136254089    1.33636327311806    0.16593078756351
C          -0.92520811926577    2.45498001886405    1.21367129350734
C          -0.41422739018809    1.97112464436540    2.57018033584976
O           0.71526818920672    1.64935080357754    2.85655853122929
N          -1.48132507355661    1.92583206353905    3.42361141102467
C          -1.38752425477193    1.47697915480590    4.78551464010756
C          -2.64813044273170    2.35968918073327    2.80843135050856
C          -3.91671003854404    2.44701185542265    3.33803664222534
C          -4.94764131507566    2.92564863900956    2.52164889502244
C          -4.65876260868774    3.30625359348286    1.20962401517407
C          -3.37786920210613    3.21551821702583    0.68486697347930
C          -2.37055440378617    2.73034971842758    1.48766427009059
C          -6.32196098336461    3.04666680576023    2.99402749983317
C          -6.76397128354862    2.82855472145442    4.22675142631916
H          -4.24209618032400   -0.99363709708714   -1.41395185717956
H          -4.31702840874062   -2.56801282326115    0.48558119241798
H          -2.67783821373368   -2.42343421528895    2.30211483773198
H          -0.92466156310892   -0.67803824485908    2.27850692192347
H          -2.99588568214190    0.35109766250043   -3.39666589765740
H          -2.61250487332225    2.08572747719048   -3.28507805863178
H          -4.09446418323818    1.44948596023474   -2.52579189814559
H           0.32774060608860    1.08302917095819    0.12392738035640
H          -0.37036234543872    3.33568889685074    0.87820025578144
H          -0.34777300476080    1.20853789655676    4.97023267203063
H          -2.02421960682755    0.60402822222165    4.94507668491336
H          -1.68433571176297    2.27078325506687    5.47397665122296
H          -4.11171449353505    2.14840353236286    4.35467855544041
H          -5.45683834245157    3.68525753615440    0.58780011483646
H          -3.17671725133856    3.52603938492872   -0.32915582155119
H          -7.02932767061061    3.35655032392763    2.23462684262530
H          -6.12045661620165    2.52907600742128    5.03582329805209
H          -7.80420202990393    2.94834140041890    4.47593667057830
