# ORCA input file
# SCF done        -66.040357580357          0.000340269094
! B3LYP/G D3BJ Opt RIJCOSX def2-SVP def2/J
* xyz 0 1
   C       -3.52521        -0.91732        -0.61165
   C       -3.55873        -1.79978         0.45974
   C       -2.63526        -1.71653         1.48762
   C       -1.65107        -0.73430         1.48237
   C       -1.61723         0.15555         0.43318
   C       -2.54461         0.05547        -0.60945
   N       -2.29308         1.04063        -1.55387
   C       -3.04918         1.23659        -2.76016
   C       -1.23351         1.82610        -1.19287
   O       -0.80957         2.75559        -1.83907
   C       -0.73529         1.33636         0.16593
   C       -0.92521         2.45498         1.21367
   C       -0.41423         1.97112         2.57018
   O        0.71527         1.64935         2.85656
   N       -1.48133         1.92583         3.42361
   C       -1.38752         1.47698         4.78551
   C       -2.64813         2.35969         2.80843
   C       -3.91671         2.44701         3.33804
   C       -4.94764         2.92565         2.52165
   C       -4.65876         3.30625         1.20962
   C       -3.37787         3.21552         0.68487
   C       -2.37055         2.73035         1.48766
   C       -6.32196         3.04667         2.99403
   C       -6.76397         2.82855         4.22675
   H       -4.24210        -0.99364        -1.41395
   H       -4.31703        -2.56801         0.48558
   H       -2.67784        -2.42343         2.30211
   H       -0.92466        -0.67804         2.27851
   H       -2.99589         0.35110        -3.39667
   H       -2.61250         2.08573        -3.28508
   H       -4.09446         1.44949        -2.52579
   H        0.32774         1.08303         0.12393
   H       -0.37036         3.33569         0.87820
   H       -0.34777         1.20854         4.97023
   H       -2.02422         0.60403         4.94508
   H       -1.68434         2.27078         5.47398
   H       -4.11171         2.14840         4.35468
   H       -5.45684         3.68526         0.58780
   H       -3.17672         3.52604        -0.32916
   H       -7.02933         3.35655         2.23463
   H       -6.12046         2.52908         5.03582
   H       -7.80420         2.94834         4.47594
*
