# ORCA input file
# SCF done        -22.015991499315          0.000386879363
! B3LYP/G D3BJ Opt RIJCOSX def2-SVP def2/J
* xyz 0 1
   C        1.46037        -0.69820         0.20889
   C        1.42614         0.76428         0.16378
   C        0.20111         1.18126        -0.17496
   C       -0.65981        -0.01617        -0.37675
   O       -1.82402        -0.02813        -0.68490
   C        0.24876        -1.20187        -0.10458
   C       -0.13005        -2.58545        -0.17392
   C       -1.34234        -3.02885        -0.50713
   H        2.34317        -1.25947         0.45907
   H        2.28437         1.37671         0.37861
   H       -0.15747         2.18529        -0.29492
   H        0.66013        -3.28739         0.06869
   H       -2.14196        -2.35239        -0.75262
   H       -1.56388        -4.08182        -0.54201
*
