14
 SCF done        -22.015991499315          0.000386879363
C           1.46037263726888   -0.69820296646825    0.20889306819268
C           1.42614315082375    0.76428325927302    0.16377920740136
C           0.20111370618394    1.18125766434283   -0.17495985092782
C          -0.65980644487615   -0.01616722012250   -0.37674932806780
O          -1.82402076315384   -0.02812948920405   -0.68490176754483
C           0.24876357802356   -1.20187299635472   -0.10458137999230
C          -0.13005131176361   -2.58545137268145   -0.17391586808896
C          -1.34234405896888   -3.02885047382689   -0.50713375080017
H           2.34316960331616   -1.25947231750199    0.45906971734122
H           2.28437347992608    1.37671097493285    0.37861209450153
H          -0.15746815261002    2.18528788255740   -0.29492031997041
H           0.66013099085373   -3.28739040211708    0.06868670704950
H          -2.14196231113057   -2.35239052791464   -0.75262444657489
H          -1.56388410389301   -4.08182201491452   -0.54201408251911
