21
 SCF done        -34.508615739492          0.000613158065
C           1.53632881734731    1.18603199496413   -0.23476094504249
S           2.72648201037611   -0.03645296842043   -0.04343073410869
C           1.50911713357900   -1.22530061635041    0.18463907389569
C           0.25597532961249   -0.70273262237343    0.11642074192411
C           0.27155933330978    0.69871526726676   -0.12911738851752
C          -0.97703195535850    1.50850346006859   -0.29773396089048
C          -2.20015759826985    0.76009543234492    0.25577155876366
C          -2.17890883060897    0.77027329901737    1.70063831664139
N          -2.15767436125826    0.77511988488490    2.84313758108254
C          -2.21464908623779   -0.70310498261923   -0.24684595838978
C          -2.17851857009265   -0.71533703391071   -1.69142331070341
N          -2.14095584542707   -0.72192275960542   -2.83327392232601
C          -1.01103597503176   -1.47570741726514    0.31560376572603
H           1.83958499185526    2.19710248975068   -0.41969016266731
H           1.78943468391539   -2.24476641678372    0.35957356614346
H          -1.13943753860949    1.70071977548415   -1.36373230451919
H          -0.87180370527919    2.47506689098996    0.20146763058541
H          -3.11626230805240    1.27005638744832   -0.06853144281872
H          -3.14413885466313   -1.19239642070187    0.07071758674511
H          -0.93629610185716   -2.45583102486690   -0.16226107212176
H          -1.17078156924898   -1.63845261932255    1.38699138059836
