# ORCA input file
# SCF done        -34.508615739492          0.000613158065
! B3LYP/G D3BJ Opt RIJCOSX def2-SVP def2/J
* xyz 0 1
   C        1.53633         1.18603        -0.23476
   S        2.72648        -0.03645        -0.04343
   C        1.50912        -1.22530         0.18464
   C        0.25598        -0.70273         0.11642
   C        0.27156         0.69872        -0.12912
   C       -0.97703         1.50850        -0.29773
   C       -2.20016         0.76010         0.25577
   C       -2.17891         0.77027         1.70064
   N       -2.15767         0.77512         2.84314
   C       -2.21465        -0.70310        -0.24685
   C       -2.17852        -0.71534        -1.69142
   N       -2.14096        -0.72192        -2.83327
   C       -1.01104        -1.47571         0.31560
   H        1.83958         2.19710        -0.41969
   H        1.78943        -2.24477         0.35957
   H       -1.13944         1.70072        -1.36373
   H       -0.87180         2.47507         0.20147
   H       -3.11626         1.27006        -0.06853
   H       -3.14414        -1.19240         0.07072
   H       -0.93630        -2.45583        -0.16226
   H       -1.17078        -1.63845         1.38699
*
