15
 SCF done        -27.182480828816          0.000773660331
C           0.64429706853839   -1.27120175885502   -0.04065724369553
C           1.85028485195434   -0.76079817907933   -0.26015741729732
C           1.94481565776496    0.68845310109175   -0.21404224214225
C           0.80463226820548    1.34008946450981    0.04847348853316
S          -0.49746973472127    0.08995139574706    0.25044899091461
O          -1.46670877359041    0.17718028457395   -0.80758964277356
O          -0.99284499213420    0.06028191233273    1.59958412461858
C           0.52105079381165    2.73446055462429    0.16864642936764
C          -0.69812229307159    3.18554303777082    0.46092499229082
H           0.33424848796407   -2.29485456800262   -0.02359987859603
H           2.73446946730875   -1.34501965028630   -0.46386429440642
H           2.89377726239709    1.17205046168703   -0.38474069522384
H           1.34982479939301    3.41456939369686    0.01008622578475
H          -1.51592780379336    2.50310458028185    0.61848416249935
H          -0.90551706002690    4.23774996990706    0.55176300012605
