# ORCA input file
# SCF done        -27.182480828816          0.000773660331
! B3LYP/G D3BJ Opt RIJCOSX def2-SVP def2/J
* xyz 0 1
   C        0.64430        -1.27120        -0.04066
   C        1.85028        -0.76080        -0.26016
   C        1.94482         0.68845        -0.21404
   C        0.80463         1.34009         0.04847
   S       -0.49747         0.08995         0.25045
   O       -1.46671         0.17718        -0.80759
   O       -0.99284         0.06028         1.59958
   C        0.52105         2.73446         0.16865
   C       -0.69812         3.18554         0.46092
   H        0.33425        -2.29485        -0.02360
   H        2.73447        -1.34502        -0.46386
   H        2.89378         1.17205        -0.38474
   H        1.34982         3.41457         0.01009
   H       -1.51593         2.50310         0.61848
   H       -0.90552         4.23775         0.55176
*
