# ORCA input file
# SCF done        -22.334222040692          0.000801322574
! B3LYP/G D3BJ Opt RIJCOSX def2-SVP def2/J
* xyz 0 1
   C       -0.36168         1.02095         0.12599
   S       -1.26235        -0.43710         0.02325
   C        0.18267        -1.36988         0.06358
   C        1.29327        -0.59756         0.13673
   C        0.97795         0.78571         0.18001
   S        2.16795         2.08913         0.23178
   C        3.32194         1.41909         1.38185
   C        4.51592         1.94633         1.59298
   H       -0.86196         1.96756         0.13003
   H        0.12159        -2.43868         0.01823
   H        2.29664        -0.98313         0.14865
   H        2.95311         0.56113         1.92143
   H        4.85882         2.80822         1.04822
   H        5.18530         1.53071         2.32542
*
