# ORCA input file
# SCF done        -37.054384587560          0.000354609333
! B3LYP/G D3BJ Opt RIJCOSX def2-SVP def2/J
* xyz 0 1
   C        0.81619         1.41246        -0.24700
   S       -0.53650         0.42317        -0.60986
   C        0.45913        -1.00862        -0.55852
   C        1.76819        -0.69186        -0.26236
   C        1.96947         0.70477        -0.09354
   C        3.27411         1.35198         0.26009
   C        3.48318         1.37256         1.77558
   C        2.86924        -1.70651        -0.19693
   C        3.40761        -2.01827        -1.59546
   C       -0.10059        -2.29919        -0.80904
   C       -1.37885        -2.53113        -1.15824
   C       -1.90837        -3.84228        -1.40758
   C       -3.17074        -4.07489        -1.76428
   H        0.68274         2.47382        -0.17138
   H        3.27656         2.37755        -0.11494
   H        4.09723         0.81782        -0.21730
   H        2.69317         1.94517         2.25589
   H        4.44014         1.82793         2.02024
   H        3.46502         0.36347         2.18118
   H        2.50102        -2.62570         0.26335
   H        3.68088        -1.32862         0.42557
   H        2.61651        -2.41615        -2.22701
   H        4.21062        -2.74987        -1.53899
   H        3.79322        -1.11530        -2.06399
   H        0.57774        -3.13671        -0.70927
   H       -2.06153        -1.69793        -1.26731
   H       -1.21785        -4.66894        -1.29284
   H       -3.87689        -3.27020        -1.88559
   H       -3.53937        -5.06957        -1.94526
*
