# ORCA input file
# SCF done        -28.724143471252          0.000959484972
! B3LYP/G D3BJ Opt RIJCOSX def2-SVP def2/J
* xyz 0 1
   C        1.50773         1.24122         0.00953
   S        2.70046         0.01867         0.20519
   C        1.48294        -1.19560         0.24788
   C        0.23166        -0.68304         0.11542
   C        0.24700         0.73520        -0.02548
   C       -1.00077         1.53942        -0.22229
   C       -2.23297         0.75586         0.21589
   S       -2.38227         0.74677         2.04779
   C       -2.21772        -0.65581        -0.36210
   C       -1.03881        -1.47450         0.16205
   H        1.81145         2.26577        -0.07425
   H        1.76721        -2.22151         0.37217
   H       -1.10479         1.78457        -1.28520
   H       -0.93504         2.48279         0.32443
   H       -3.13825         1.27655        -0.10442
   H       -1.11244         0.43029         2.28503
   H       -2.15239        -0.57016        -1.44995
   H       -3.15142        -1.16490        -0.11772
   H       -0.93216        -2.39170        -0.42081
   H       -1.23736        -1.77171         1.19695
*
