18
 SCF done        -29.428256285370          0.000727665141
C          -1.53991767028225    1.13910231305513   -0.12863627670880
N          -2.30032523427641    0.02250033657730   -0.04490689652092
C          -1.56035227141112   -1.11327073741585    0.08359338632937
C          -0.22016607525353   -0.70212563104486    0.08285136819306
C          -0.21586829559006    0.73658461360270   -0.05341873732082
N           0.93233506361832    1.44174690269188   -0.08849642807058
C           2.01886906660982    0.72391262121738    0.01132757384954
C           2.01482504214854   -0.68674807312185    0.14789510987729
N           0.92120885904155   -1.40342242430924    0.18423030157240
C          -2.15221282670813   -2.41506684381711    0.18739855453900
C          -1.44845356233561   -3.53918283144392    0.30796888354985
H          -1.96460944979696    2.11614515924303   -0.23362885937560
H          -3.30921019787416    0.02328547597965   -0.07307300484019
H           2.95533648898561    1.26536851288338   -0.01304844910512
H           2.94692215634320   -1.22992856136263    0.23073082783707
H          -3.23641844515930   -2.43917133401896    0.16366397861206
H          -0.37317717226536   -3.50998514625805    0.33029682178451
H          -1.92733547579421   -4.49936435245802    0.38474184579781
