14
 SCF done        -21.737615786812          0.000467894907
C          -2.09667569599854    0.07809825099513    0.00275269589652
N          -1.34084711707279   -1.06472819834774    0.00279779626061
C          -0.02702413135658   -0.69959438002919    0.00078952956737
C           1.29326360709768   -1.19049221475780   -0.00017954811880
C           2.09667569641804   -0.07809825077509   -0.00275269587853
N           1.34084711685239    1.06472819811811   -0.00279779626113
C           0.02702413180978    0.69959438017588   -0.00078952957960
C          -1.29326360728293    1.19049221467024    0.00017954811605
H          -3.16805244870020    0.02311579202072    0.00447058541275
H          -1.70442576809063   -2.00136023404064    0.00409290054574
H           1.62153637873331   -2.21088602815950    0.00061552809091
H           3.16805244880296   -0.02311579216356   -0.00447058538152
H           1.70442576767373    2.00136023409620   -0.00409290056137
H          -1.62153637888622    2.21088602819723   -0.00061552810901
