# ORCA input file
# SCF done        -21.737615786812          0.000467894907
! B3LYP/G D3BJ Opt RIJCOSX def2-SVP def2/J
* xyz 0 1
   C       -2.09668         0.07810         0.00275
   N       -1.34085        -1.06473         0.00280
   C       -0.02702        -0.69959         0.00079
   C        1.29326        -1.19049        -0.00018
   C        2.09668        -0.07810        -0.00275
   N        1.34085         1.06473        -0.00280
   C        0.02702         0.69959        -0.00079
   C       -1.29326         1.19049         0.00018
   H       -3.16805         0.02312         0.00447
   H       -1.70443        -2.00136         0.00409
   H        1.62154        -2.21089         0.00062
   H        3.16805        -0.02312        -0.00447
   H        1.70443         2.00136        -0.00409
   H       -1.62154         2.21089        -0.00062
*
