# ORCA input file
# SCF done        -50.490416285868          0.000392720895
! B3LYP/G D3BJ Opt RIJCOSX def2-SVP def2/J
* xyz 0 1
   C        2.97043        -0.52104        -0.23755
   N        2.51037         0.65316        -0.07040
   C        1.14439         0.67533        -0.07699
   C        0.56157        -0.60012        -0.25870
   S        1.79718        -1.80616        -0.43850
   C       -0.80965        -0.72331        -0.24159
   C       -1.58865         0.41564        -0.02422
   C       -1.02913         1.69721         0.07000
   C        0.35960         1.82859         0.05145
   C        1.09302         3.13640         0.15837
   C        1.81657         3.48542        -1.14391
   C       -1.94270         2.89703         0.09576
   C       -2.02294         3.55034        -1.28566
   N       -2.96238         0.12679         0.08907
   C       -3.27671        -1.09874        -0.56606
   S       -1.76652        -2.17826        -0.46201
   C       -3.62987         0.48735         1.25476
   C       -4.91301         0.25866         1.50432
   H        4.01750        -0.75206        -0.25961
   H        1.84318         3.03839         0.94625
   H        0.41479         3.94381         0.42782
   H        2.56779         2.73168        -1.36111
   H        2.30771         4.45111        -1.05003
   H        1.12016         3.52937        -1.97854
   H       -1.59458         3.62669         0.82873
   H       -2.94855         2.59413         0.38231
   H       -1.05533         3.93022        -1.59782
   H       -2.72914         4.37718        -1.26655
   H       -2.36109         2.82502        -2.02215
   H       -3.47184        -0.94746        -1.63246
   H       -4.11033        -1.61731        -0.09712
   H       -3.01149         1.01115         1.97196
   H       -5.56641        -0.24152         0.81170
   H       -5.34715         0.57340         2.43447
*
