34
 SCF done        -50.490416285868          0.000392720895
C           2.97043354480738   -0.52103633804651   -0.23755386579775
N           2.51036561319169    0.65315561315627   -0.07039851364367
C           1.14439276452777    0.67532701298173   -0.07698786783353
C           0.56157317368211   -0.60012135027960   -0.25869693565677
S           1.79717885078333   -1.80615725962624   -0.43849749050430
C          -0.80964952081504   -0.72331456270547   -0.24159183103982
C          -1.58864735196007    0.41564304068891   -0.02421788864009
C          -1.02913224498121    1.69721417454699    0.06999673754281
C           0.35960192613688    1.82859423395831    0.05145243147015
C           1.09301779356534    3.13639798491208    0.15836771839753
C           1.81657124849902    3.48542333484078   -1.14390715179234
C          -1.94269787472819    2.89703346153238    0.09575504002120
C          -2.02293768931496    3.55034195987824   -1.28565700399590
N          -2.96237994615046    0.12679420711309    0.08906511673492
C          -3.27670875095014   -1.09874328387661   -0.56606216747537
S          -1.76651936788986   -2.17826187039297   -0.46200565785734
C          -3.62987151921912    0.48734933755278    1.25475691429859
C          -4.91301152102695    0.25865892442170    1.50432345192444
H           4.01749951642789   -0.75205673789008   -0.25960990621887
H           1.84317768923129    3.03839471561969    0.94625339450446
H           0.41479378644463    3.94380501392999    0.42781696001148
H           2.56778558470917    2.73167802958003   -1.36111454941655
H           2.30770694208714    4.45110886973386   -1.05002597908725
H           1.12016090856281    3.52936714424856   -1.97853757537511
H          -1.59458329468854    3.62669474789637    0.82872768115571
H          -2.94854857024976    2.59412784870082    0.38230862836175
H          -1.05532574261699    3.93022499084701   -1.59782078928056
H          -2.72913886764168    4.37717646357432   -1.26654669566547
H          -2.36109079868884    2.82502243145537   -2.02215018868864
H          -3.47184488338057   -0.94745855476639   -1.63246110578751
H          -4.11032808648243   -1.61730583132585   -0.09712392587455
H          -3.01149419528307    1.01115452409733    1.97195766966195
H          -5.56641493355593   -0.24152160336940    0.81170295782334
H          -5.34715418303248    0.57339932701244    2.43447238772330
