# ORCA input file
# SCF done        -38.909329647501          0.000644811610
! B3LYP/G D3BJ Opt RIJCOSX def2-SVP def2/J
* xyz 0 1
   C       -0.86943        -0.09941         1.73844
   S       -0.23975         1.49279         1.62801
   C        1.22284         0.92539         0.94987
   C        1.23718        -0.43910         0.81201
   C        0.01240        -1.03985         1.26618
   C       -0.19850        -2.43817         1.21645
   S        0.83960        -3.53635         0.52739
   O        0.39687        -3.73100        -1.27647
   C       -0.59666        -2.90316        -1.74579
   C        2.28834        -2.56241         0.20426
   C        2.32682        -1.22136         0.33800
   O        3.40248        -3.23012        -0.16566
   C        3.28209        -4.59247        -0.52121
   H       -1.84921        -0.25764         2.14056
   H        1.99816         1.61842         0.69206
   H       -1.05780        -2.87476         1.69580
   H       -1.37257        -3.49517        -2.24088
   H       -0.19171        -2.16381        -2.44720
   H       -1.06562        -2.35715        -0.90427
   H        3.25029        -0.71923         0.08732
   H        4.23501        -4.86332        -0.97209
   H        2.47264        -4.74579        -1.23852
   H        3.10890        -5.21343         0.36350
*
