17
 SCF done        -24.379479121308          0.000881259670
C           2.61472864578817    1.11383671441613   -0.22557139810964
C           2.36271877994009   -0.15919280253251    0.05470084720793
C           3.05541837494700   -0.95872280094673    1.04699622330899
C           2.74582836900553   -2.27416177497266    1.27806500867707
S           3.71268155813888   -2.98224666042611    2.49825398062231
C           4.57959435084086   -1.48720021831204    2.73380118490231
C           4.10976225742681   -0.52063744848606    1.89000565874634
C           5.62570352840067   -1.43173857797880    3.72301234118900
C           6.36170892714841   -0.36105701031874    4.00593446084177
H           2.05722926280191    1.64319146669073   -0.97912543821422
H           3.38183591686842    1.67559772811983    0.27930301995307
H           1.58123471361636   -0.68365303707510   -0.48105276155010
H           1.99500804497173   -2.86507614996531    0.79033233851840
H           4.50476530625537    0.47781877157667    1.87018547795380
H           5.79433817678661   -2.35805538734770    4.25756474252612
H           6.22626503852512    0.57882105773077    3.49902716260030
H           7.12795874853805   -0.39324387017236    4.76025715082655
