31
 SCF done        -45.200331296132          0.000495339284
C           1.58019434688422   -1.32108686235545   -0.10764395200797
S           2.90643275087263   -0.23476464591002   -0.07791024352980
C           1.83449245517612    1.14204276441223   -0.09945875942384
C           0.52185184182965    0.73570431602240   -0.11124205860273
C           0.38211302459300   -0.67630335326720   -0.11384500514105
C          -0.94609022007574   -1.36246386845155   -0.07131560156102
C          -2.08754045127166   -0.40641476267901   -0.43701870065246
O          -2.12131245105681   -0.04311846781025   -1.80226771799302
C          -2.62853868529849   -1.03220391871617   -2.66041755553681
C          -1.92700085194717    0.89294221886195    0.36982355888012
O          -1.89709769695450    0.52345470472504    1.73303121326277
C          -2.01853965650738    1.59161934580577    2.63719489065360
C          -0.67245918620198    1.63253366225220   -0.11204027574199
C           2.43618257911282    2.45167794775912   -0.08834613542267
C           1.87510419504106    3.59545707960175   -0.47135670989118
H           1.76291421033079   -2.37760457159399   -0.11283624766409
H          -1.13184707835821   -1.71266576963221    0.94709271475333
H          -0.94691160182901   -2.23135022063517   -0.73241252889449
H          -3.04359018850340   -0.87986505599938   -0.15893646003457
H          -2.69485552311584   -0.57355432903258   -3.64528462664579
H          -3.62630341771007   -1.35956093518011   -2.34206977990019
H          -1.97202896668236   -1.90716868671441   -2.71876032365651
H          -2.80224014641008    1.53834057824718    0.18327941340077
H          -2.14471379398147    1.14219747426733    3.62048758482890
H          -2.89301818154664    2.21139399839105    2.40436608234841
H          -1.12620629231160    2.22632131915058    2.64891528273798
H          -0.48875690110362    2.51079569995953    0.50967304112083
H          -0.87516452851224    1.96757203362384   -1.13248998773376
H           3.46496856297019    2.45983633014161    0.25235079946361
H           0.87909308449175    3.65382769714891   -0.87073315405414
H           2.42316876807617    4.52052827760699   -0.41682875736237
