# ORCA input file
# SCF done        -42.724732574352          0.000753656293
! B3LYP/G D3BJ Opt RIJCOSX def2-SVP def2/J
* xyz 0 1
   C        2.44947        -1.01603         0.14453
   C        1.10704        -0.66474         0.10504
   N       -0.01140        -1.46244         0.14993
   C       -0.01315        -2.89837         0.18847
   C        0.03736        -3.50946        -1.21663
   C        0.03518        -5.03119        -1.16331
   C       -1.12377        -0.66090         0.05272
   C       -0.72126         0.69458        -0.02346
   C        0.71348         0.69210         0.01024
   C        1.67382         1.69380        -0.03671
   C        3.00651         1.33606         0.00683
   C        3.38606        -0.00149         0.09502
   C       -1.67456         1.69988        -0.11555
   C       -3.00917         1.34726        -0.13432
   C       -3.39739         0.01112        -0.06402
   C       -2.46796        -1.00693         0.02906
   H        2.76230        -2.04772         0.20848
   H       -0.91682        -3.23318         0.70585
   H        0.85091        -3.23394         0.76958
   H        0.93818        -3.15602        -1.72291
   H       -0.82449        -3.15565        -1.78669
   H        0.89630        -5.39578        -0.60705
   H        0.07396        -5.44722        -2.16677
   H       -0.86633        -5.39577        -0.67536
   H        1.37928         2.73023        -0.10794
   H        3.76969         2.09929        -0.02953
   H        4.43679        -0.25102         0.12393
   H       -1.37300         2.73516        -0.17248
   H       -3.76692         2.11336        -0.20580
   H       -4.44924        -0.23450        -0.08407
   H       -2.78762        -2.03739         0.07762
*
