16
 SCF done        -26.637366248416          0.000947198105
C          -1.99330458294697   -1.14791462318241    0.08857205973899
C          -0.75006820738535   -1.66096488975930   -0.09590139798622
C           0.22178248518552   -0.64086841150597   -0.10471937948250
C          -0.30200552927305    0.63550976055246    0.07289224822256
S          -2.02099599101598    0.57641423391144    0.25407258632555
C           0.66302532087373    1.65400839325335    0.06611301506642
C           1.92825542738441    1.15892630180612   -0.11673942814833
S           1.93741203274568   -0.58892870046349   -0.28405047417574
C           3.14579944756105    1.91990999482943   -0.17298166763223
C           4.35945905146442    1.40731612684026   -0.35173583617685
H          -2.92225685479132   -1.68026316309492    0.14068777153436
H          -0.53660605433072   -2.70652981843693   -0.21783497767245
H           0.44419458278016    2.69884681746967    0.18886496895379
H           3.01301763708413    2.98850687175711   -0.05648089966461
H           4.50952645699903    0.34750557985318   -0.47247034098748
H           5.23662477766530    2.02854552617003   -0.38236824791528
