# ORCA input file
# SCF done        -26.637366248416          0.000947198105
! B3LYP/G D3BJ Opt RIJCOSX def2-SVP def2/J
* xyz 0 1
   C       -1.99330        -1.14791         0.08857
   C       -0.75007        -1.66096        -0.09590
   C        0.22178        -0.64087        -0.10472
   C       -0.30201         0.63551         0.07289
   S       -2.02100         0.57641         0.25407
   C        0.66303         1.65401         0.06611
   C        1.92826         1.15893        -0.11674
   S        1.93741        -0.58893        -0.28405
   C        3.14580         1.91991        -0.17298
   C        4.35946         1.40732        -0.35174
   H       -2.92226        -1.68026         0.14069
   H       -0.53661        -2.70653        -0.21783
   H        0.44419         2.69885         0.18886
   H        3.01302         2.98851        -0.05648
   H        4.50953         0.34751        -0.47247
   H        5.23662         2.02855        -0.38237
*
