# ORCA input file
# SCF done        -33.455437969158          0.000833453958
! B3LYP/G D3BJ Opt RIJCOSX def2-SVP def2/J
* xyz 0 1
   C        1.80853        -1.17559         0.46244
   O        0.79723        -1.33179        -0.50605
   C       -0.37952        -0.66920        -0.26505
   C       -1.58925        -1.24198        -0.51828
   S       -2.89144        -0.19083        -0.14809
   C       -1.81115         1.04202         0.35822
   C       -0.50794         0.66317         0.24075
   O        0.51452         1.49969         0.59428
   C        1.73777         1.33515        -0.08981
   C        2.55890         0.14711         0.39998
   O        3.71245         0.24404         0.71812
   H        2.51774        -1.99133         0.29389
   H        1.40352        -1.27757         1.48223
   H       -1.76885        -2.22092        -0.91173
   H       -2.18085         1.97946         0.71799
   H        2.30341         2.25381         0.08426
   H        1.57595         1.21002        -1.17129
*
