# ORCA input file
# SCF done        -31.764890212071          0.000361945906
! B3LYP/G D3BJ Opt RIJCOSX def2-SVP def2/J
* xyz 0 1
   C        0.21863         1.17111         0.11597
   S       -0.81703        -0.20005         0.09444
   C        0.53688        -1.26295         0.25212
   C        0.33197        -2.74011         0.25673
   C        0.74069        -3.36408        -1.07957
   C        1.72347        -0.57511         0.28442
   C        1.53277         0.84261         0.21288
   C        2.61530         1.87689         0.26876
   C        2.90707         2.45628        -1.11658
   C        2.99902        -1.26738         0.42197
   C        4.13044        -0.95501        -0.19441
   H       -0.21124         2.15203         0.06366
   H       -0.72023        -2.95552         0.45228
   H        0.92483        -3.18917         1.05901
   H        0.14267        -2.94880        -1.88724
   H        0.59171        -4.44075        -1.05496
   H        1.78862        -3.15938        -1.28565
   H        3.52024         1.43312         0.68577
   H        2.29912         2.68821         0.92931
   H        3.18054         1.66913        -1.81575
   H        3.72348         3.17308        -1.06365
   H        2.02664         2.96095        -1.50757
   H        2.97670        -2.12949         1.07882
   H        4.20345        -0.14303        -0.89576
   H        5.03013        -1.52532        -0.03396
*
