25
 SCF done        -31.764890212071          0.000361945906
C           0.21862550346123    1.17111156366066    0.11597427343653
S          -0.81702693283207   -0.20005328638757    0.09443728604071
C           0.53687901703773   -1.26295137021970    0.25211728856033
C           0.33197041448286   -2.74010548539724    0.25672596358114
C           0.74069077882886   -3.36408312700524   -1.07957487952864
C           1.72347356642514   -0.57511170762835    0.28441788776729
C           1.53276614905411    0.84261074352975    0.21288377661224
C           2.61530085459351    1.87688841359000    0.26876358888273
C           2.90706864647993    2.45627652121667   -1.11658098134725
C           2.99902197108361   -1.26738374889138    0.42197365952648
C           4.13043974566614   -0.95500678618079   -0.19441093095637
H          -0.21124004237118    2.15202632938590    0.06365981063445
H          -0.72022529811676   -2.95551503763155    0.45227786478440
H           0.92482936519899   -3.18917058679965    1.05901303282983
H           0.14267443181845   -2.94879528856421   -1.88724295173589
H           0.59171031565396   -4.44075475438363   -1.05495688399118
H           1.78861753342685   -3.15937818972345   -1.28564654776575
H           3.52023895013964    1.43311838493193    0.68577057315896
H           2.29912316606825    2.68821224444282    0.92930637753500
H           3.18053747496046    1.66912993571355   -1.81575283450522
H           3.72348016757289    3.17308474065414   -1.06364850013902
H           2.02663973929084    2.96094830220285   -1.50757421073882
H           2.97670439405572   -2.12948744951599    1.07881658115442
H           4.20345175772781   -0.14303138476817   -0.89576071201549
H           5.03012833029378   -1.52531897623093   -0.03395853178104
