12
 SCF done        -18.237183071078          0.000840752662
C          -1.10762378432465    0.03636929612353   -0.00083157116370
N          -0.26973210130841    1.10207634946859    0.00018541892145
C           1.02501845078331    0.66154446549012    0.00096868054182
C           0.99843976284857   -0.71830124689604    0.00050190401999
C          -0.35085499818529   -1.10680882425540   -0.00109826200711
C           2.11729711035689    1.54156923093870    0.00271498893096
C           3.05935720142810    2.28804914253017    0.00609745597554
H          -2.17287748110078    0.16061035154498   -0.00136544502316
H          -0.54382196274955    2.07057575245205    0.00049249213020
H           1.85583182234906   -1.36199600473019    0.00118369867758
H          -0.72127151942856   -2.11303953608847   -0.00184023533495
H           3.88406749933131    2.93594102342196    0.00376087433138
