24
 SCF done        -50.725876833344          0.000689955698
C          -1.75651508292061    0.86729866081481    0.06315871287737
S          -2.70837402569269   -0.54832878526522    0.09609193314508
C          -1.33381145680084   -1.58630161221880    0.01372436448729
C          -0.15907677753738   -0.82923477293894   -0.03652770691464
C          -0.41409405132592    0.58936100015151   -0.01028362996532
C           0.69043810711043    1.50596748947667   -0.06826454166880
C           0.42194616624703    2.93090433464556   -0.05760214394034
O          -0.66263430467454    3.45839845161258    0.04774988203517
C           1.65414026979031    3.87557882935964   -0.20796703359092
F           2.34485092667624    3.64761457709226   -1.34042509683194
F           1.27509342604260    5.15023954772890   -0.23775073086558
F           2.52834673391144    3.75157513009822    0.80761292628884
C           1.96936700623393    0.98184773605763   -0.13526749061075
C           2.19972504271207   -0.39938184761258   -0.14934994837987
C           1.16453163335226   -1.29612806562517   -0.10459602737274
C          -1.45402488805686   -3.01387785477788   -0.00013917153944
C          -2.60675058551741   -3.68236420285425    0.03011888196306
H          -2.23078377898025    1.82606578067549    0.09912214826264
H           2.83125064922688    1.62725869862984   -0.17402687055973
H           3.21766812309473   -0.75364732465354   -0.19875215420101
H           1.36163288039913   -2.35708889095693   -0.12026245954599
H          -0.51958814640809   -3.55657530221294   -0.04148967531555
H          -3.55410154304104   -3.17090367287885    0.06650442691801
H          -2.63404632384150   -4.75693790434808    0.01461140532526
