# ORCA input file
# SCF done        -29.772297667152          0.000521832042
! B3LYP/G D3BJ Opt RIJCOSX def2-SVP def2/J
* xyz 0 1
   C       -0.24241         1.28839         0.17654
   S       -1.26770        -0.09745         0.10898
   C        0.08012        -1.13864        -0.15913
   C        1.24728        -0.44877        -0.19308
   O        2.51315        -0.92375        -0.38218
   C        2.63723        -2.31211        -0.56982
   C        1.07013         0.96632         0.00124
   N        2.16374         1.79603        -0.00761
   C        2.16456         3.15725         0.14888
   C        3.26187         3.90688         0.12819
   H       -0.68478         2.24794         0.34203
   H       -0.09140        -2.18900        -0.27259
   H        3.70037        -2.50452        -0.70271
   H        2.09022        -2.64152        -1.45897
   H        2.27022        -2.86352         0.30166
   H        3.05098         1.33564        -0.15143
   H        1.18756         3.59359         0.29314
   H        4.23866         3.47838        -0.01666
   H        3.20916         4.97072         0.25427
*
