# ORCA input file
# SCF done        -28.540416770054          0.000953418860
! B3LYP/G D3BJ Opt RIJCOSX def2-SVP def2/J
* xyz 0 1
   C       -1.13136        -0.03756        -0.02414
   O       -0.32648         1.04977        -0.11581
   C        0.92556         0.64231        -0.14039
   C        0.97638        -0.73565        -0.06351
   N        2.12996        -1.53107        -0.02130
   O        3.20733        -0.97500        -0.09601
   O        1.98164        -2.73760         0.10360
   C       -0.38633        -1.19138         0.01034
   N       -0.78301        -2.48785         0.02182
   H       -2.18748         0.12963         0.00645
   H        1.71447         1.36465        -0.20940
   H       -0.05832        -3.16573         0.21097
   H       -1.71964        -2.69998         0.31704
*
