# ORCA input file
# SCF done        -30.431105380134          0.000633723060
! B3LYP/G D3BJ Opt RIJCOSX def2-SVP def2/J
* xyz 0 1
   C       -1.76499         1.17251        -0.14208
   S       -2.88905        -0.08549        -0.43961
   C       -1.68327        -1.27185        -0.16702
   C       -0.48036        -0.72990         0.17858
   C       -0.52821         0.70477         0.19314
   O        0.45372         1.58401         0.55860
   C        1.76588         1.33123         0.10616
   C        2.39995         0.07825         0.70933
   C        1.85140        -1.20510         0.08720
   O        0.55640        -1.54999         0.52969
   H       -2.06981         2.19792        -0.18271
   H       -1.91919        -2.31412        -0.22884
   H        2.32651         2.21820         0.41127
   H        1.78213         1.26441        -0.99236
   H        2.21328         0.06441         1.78514
   H        3.47699         0.11538         0.54110
   H        2.46754        -2.05750         0.38422
   H        1.86784        -1.12342        -1.01066
*
