15
 SCF done        -26.279422482551          0.000445199448
C          -1.20387507735435    1.38204333760790   -0.03987082704460
C          -2.33284385368009    0.60614569883762   -0.05696682801846
N          -2.32334019893500   -0.73653345887509   -0.05152309278416
C          -1.18105777883403   -1.36148440749960   -0.02949373591842
C           0.06247935028432   -0.68867500283457   -0.01057241432180
C           0.04580517617097    0.73278124010810   -0.01562584025619
N           1.20102238616944    1.43587365621023    0.00216020952029
C           2.30786501809417    0.74823898938524    0.02340309574185
C           2.32201391164254   -0.66668450370338    0.02765863833785
N           1.22592511278891   -1.37251160591553    0.01118086842813
H          -1.24075605850125    2.45946256374423   -0.04399290674690
H          -3.31950290173403    1.04923629356376   -0.07480750202395
H          -1.20343370876471   -2.44269826934460   -0.02611391013554
H           3.23019528099493    1.31394759769496    0.03887831639400
H           3.25428334165818   -1.21505212897927    0.04602592882790
