27
 SCF done        -45.099235764074          0.000722636779
C           1.49890305353377   -1.26653127409144   -0.01432732887533
S           2.68861416963655   -0.03869068378358    0.04031688187156
C           1.46893929945873    1.21044108220144    0.04794020592719
C           0.20674565453330    0.65967578886128   -0.00202739817356
C           0.23062152363302   -0.76207444818729   -0.02789461778001
C          -1.00553416009326   -1.60238274432803   -0.09884044515820
C          -1.27450490371341   -2.13626647008438   -1.51179149929059
O          -2.02832794652950   -3.03997647981274   -1.72276808362663
O          -0.63875701596842   -1.51133705530481   -2.51275691156976
C          -2.23044342723619   -0.78805058843557    0.34484660643910
C          -2.27055338972072    0.55053756725412   -0.38268705056810
C          -1.08775673345228    1.42820201889763    0.03457410572089
O          -1.36092676173782    1.89763683081947    1.34430650508782
C           1.95553424664074    2.56844754161177    0.08361601423031
C           1.26780452808110    3.70079244566834    0.21329732221924
H           1.79347367353462   -2.29739991450777   -0.02327386227381
H          -0.90614198864865   -2.48199600981563    0.54478990556712
H          -0.04821017760183   -0.81587242500875   -2.18132525978693
H          -2.17306219084592   -0.60022614455495    1.41790304804905
H          -3.13404987699340   -1.36191651956145    0.13813970422327
H          -3.18222640214560    1.08535900905962   -0.11614937014098
H          -2.26122755724805    0.40453492565872   -1.46428242469777
H          -1.01839459528906    2.28396785578227   -0.65974747574111
H          -0.56560917832200    2.30218651182348    1.70912221145078
H           3.03387082659886    2.63087043168202   -0.00167076568378
H           0.19926057456479    3.75409404485262    0.31556779597242
H           1.78227875533072    4.64633470330341    0.21147218660751
