# ORCA input file
# SCF done        -25.581092287631          0.000973568676
! B3LYP/G D3BJ Opt RIJCOSX def2-SVP def2/J
* xyz 0 1
   S        1.12617         0.45710        -0.57655
   C        2.84298         0.39189        -0.18980
   C        3.65922         1.47191        -0.06762
   S        5.26676         1.02852         0.36259
   C        4.84267        -0.63403         0.35925
   C        3.53431        -0.83365         0.04956
   S        2.79398        -2.43793         0.02736
   C        2.15001        -2.45668        -1.61486
   C        1.37154        -3.42232        -2.06928
   H        1.05825         1.78731        -0.58545
   H        3.40988         2.50676        -0.19166
   H        5.57438        -1.37970         0.59456
   H        2.46893        -1.62199        -2.21962
   H        1.07200        -4.24788        -1.44731
   H        1.01617        -3.41601        -3.08460
*
