# ORCA input file
# SCF done        -24.767928746268          0.000373210543
! B3LYP/G D3BJ Opt RIJCOSX def2-SVP def2/J
* xyz 0 1
   N       -1.16663        -0.09623         0.23041
   C       -0.39973        -1.16728        -0.14749
   S       -0.99144        -2.67311        -0.43174
   C        0.94542        -0.68613        -0.22683
   C        0.96919         0.64168         0.09646
   C       -0.41084         1.02728         0.39514
   S       -1.06548         2.46244         0.84522
   C        2.15163         1.46454         0.12194
   C        2.20882         2.75512         0.44397
   H       -2.16602        -0.12918         0.36933
   H        1.77915        -1.30317        -0.50106
   H        3.05555         0.93549        -0.15529
   H        1.33568         3.31645         0.72617
   H        3.14512         3.28612         0.43237
*
