14
 SCF done        -24.767928746268          0.000373210543
N          -1.16663469867418   -0.09622903804360    0.23040869939377
C          -0.39972955545525   -1.16728471868926   -0.14749228195599
S          -0.99143680033080   -2.67310992072116   -0.43173794161472
C           0.94541679201654   -0.68613290127792   -0.22683052355630
C           0.96918689593212    0.64167795275460    0.09646409810465
C          -0.41083664373824    1.02728073824078    0.39513822441772
S          -1.06547801810571    2.46244053595004    0.84522355749334
C           2.15162592357320    1.46453876795800    0.12194239752933
C           2.20882462215826    2.75512210280420    0.44397408584325
H          -2.16601994709493   -0.12917608575059    0.36933150403120
H           1.77914899338639   -1.30316900930762   -0.50105892102896
H           3.05554959040840    0.93549441472464   -0.15529306075418
H           1.33568168001435    3.31645354876398    0.72616813910225
H           3.14512116590989    3.28612361259392    0.43237202299464
