# ORCA input file
# SCF done        -36.807600963303          0.000724861639
! B3LYP/G D3BJ Opt RIJCOSX def2-SVP def2/J
* xyz 0 1
   C        1.51139        -1.30022        -0.12599
   S        2.74143        -0.10897        -0.13649
   C        1.57101         1.17293         0.01237
   C        0.29480         0.66192         0.05153
   C        0.26718        -0.75551        -0.03004
   C       -1.00334        -1.55673        -0.01507
   C       -2.16432        -0.69311         0.41693
   O       -2.96272        -0.98525         1.26445
   C       -2.14159         0.63398        -0.32953
   O       -2.91742         0.94608        -1.19041
   C       -0.96678         1.47261         0.12030
   C        2.06993         2.52496         0.06523
   C        1.43054         3.60196         0.51266
   H        1.77288        -2.33733        -0.19310
   H       -0.91818        -2.42613         0.64142
   H       -1.22016        -1.91534        -1.02801
   H       -1.15802         1.77611         1.15605
   H       -0.89251         2.36844        -0.50093
   H        3.09014         2.62639        -0.28307
   H        0.43650         3.57273         0.91827
   H        1.91164         4.56451         0.50522
*
