18
 SCF done        -41.962349006776          0.000392600040
C          -0.39176841758463    0.84338011091156    0.34364640704427
O          -1.07224883952435   -0.28640665721208    0.27315125568232
C          -0.20859581558517   -1.28818246439873   -0.05025603726029
C           1.05274699708683   -0.77650725474867   -0.18645837160043
C           0.94506291961258    0.62300804059513    0.06967046435597
C           2.03778516293970    1.56815498812361    0.03773271326288
O           3.19209101844301    1.32177832292771   -0.19361237766706
C           1.60378236352329    3.03517462390020    0.33989484914948
F           0.68462666283381    3.46711131871802   -0.54268598589190
F           1.03990818557217    3.14219453004222    1.55699440542253
F           2.62411074356086    3.88470542654101    0.29875839810190
C          -0.68715677394702   -2.64175873914679   -0.19575509690026
C          -1.95608597791723   -3.00321714445813   -0.03859059394511
H          -0.93355446281310    1.73561789443797    0.59262974228771
H           1.95238552841455   -1.29869050290761   -0.43528049233534
H           0.07803635810947   -3.36125451816270   -0.44839041703308
H          -2.71744468328413   -2.28463739379843    0.21366196128286
H          -2.26858096944065   -4.02523058136439   -0.15649082395643
