# ORCA input file
# SCF done        -41.962349006776          0.000392600040
! B3LYP/G D3BJ Opt RIJCOSX def2-SVP def2/J
* xyz 0 1
   C       -0.39177         0.84338         0.34365
   O       -1.07225        -0.28641         0.27315
   C       -0.20860        -1.28818        -0.05026
   C        1.05275        -0.77651        -0.18646
   C        0.94506         0.62301         0.06967
   C        2.03779         1.56815         0.03773
   O        3.19209         1.32178        -0.19361
   C        1.60378         3.03517         0.33989
   F        0.68463         3.46711        -0.54269
   F        1.03991         3.14219         1.55699
   F        2.62411         3.88471         0.29876
   C       -0.68716        -2.64176        -0.19576
   C       -1.95609        -3.00322        -0.03859
   H       -0.93355         1.73562         0.59263
   H        1.95239        -1.29869        -0.43528
   H        0.07804        -3.36125        -0.44839
   H       -2.71744        -2.28464         0.21366
   H       -2.26858        -4.02523        -0.15649
*
