19
 SCF done        -25.438358983059          0.000484287999
C           0.49590991649862   -1.18525999402457    0.03571079778686
S           1.65902971945696    0.07588969393336    0.02273915336401
C           0.40117455043264    1.28561124925484    0.02562858638758
C          -0.84270780142788    0.70358677058089    0.01175448735558
C          -0.78140871594950   -0.72014272864271    0.02388205638769
C          -1.98481453216934   -1.60508939723039    0.02274395535701
C          -2.13595419853748    1.44688007063604   -0.05920250849443
C           0.81427113598223    2.66778726864040    0.03107669503700
C           0.11371969619524    3.70836934478770    0.47236590305355
H           0.82749942484730   -2.20474719092099    0.05439590942495
H          -2.64431324237883   -1.35339464283731    0.85198299496411
H          -1.68689091095585   -2.64621787975345    0.11505072465810
H          -2.54485490764251   -1.48744617613252   -0.90489887020869
H          -2.00704416475370    2.38586938388120   -0.59268396310675
H          -2.51099911942629    1.66561327968395    0.94133495222400
H          -2.88416082838239    0.84985960968413   -0.57549357016219
H           1.81889091416756    2.82899638118067   -0.34107543789688
H          -0.86396687373118    3.61192925431587    0.90778725037297
H           0.52135993777452    4.70378570296284    0.43137088349550
