22
 SCF done        -27.496378167386          0.000662222845
C          -0.62818402613220    1.35742859265913    0.00969604476245
C           0.74827194936314    1.23837161192758   -0.02270168263750
C           1.34328669367782   -0.01528198292105    0.00046424159010
C           2.83368622710147   -0.17686085640845   -0.01456676708496
C           0.51880070020194   -1.12804339879677    0.04465847915886
C          -0.87131163970377   -1.02531152546345    0.04161996674404
C          -1.45983549298589    0.24524469906793    0.04048161438026
C          -2.94333992763563    0.45393012237956    0.11109712180011
C          -1.63083509772370   -2.27959842290135    0.05336446267292
C          -2.70049043178745   -2.55357661283315   -0.67845790613613
H          -1.07396030466135    2.34268297994954    0.01261565842766
H           1.36377454911706    2.12627587462336   -0.05361730591054
H           3.32964947602997    0.79051466786283   -0.02561820822413
H           3.14575081034721   -0.73712866772395   -0.89540724564367
H           3.16553339900313   -0.72801239072905    0.86460150894925
H           0.96568596514759   -2.11323259623656    0.06408489232941
H          -3.43548378196751   -0.38436184659639    0.59746945481313
H          -3.36284287910589    0.56306753627596   -0.88931860540384
H          -3.16607590546086    1.36470177672226    0.66369139004339
H          -1.21416757613804   -3.05141347960233    0.69138102229235
H          -3.12198824705471   -1.84508959427940   -1.36990219727900
H          -3.18139445963236   -3.51658648697624   -0.63361593964411
