# ORCA input file
# SCF done        -27.496378167386          0.000662222845
! B3LYP/G D3BJ Opt RIJCOSX def2-SVP def2/J
* xyz 0 1
   C       -0.62818         1.35743         0.00970
   C        0.74827         1.23837        -0.02270
   C        1.34329        -0.01528         0.00046
   C        2.83369        -0.17686        -0.01457
   C        0.51880        -1.12804         0.04466
   C       -0.87131        -1.02531         0.04162
   C       -1.45984         0.24524         0.04048
   C       -2.94334         0.45393         0.11110
   C       -1.63084        -2.27960         0.05336
   C       -2.70049        -2.55358        -0.67846
   H       -1.07396         2.34268         0.01262
   H        1.36377         2.12628        -0.05362
   H        3.32965         0.79051        -0.02562
   H        3.14575        -0.73713        -0.89541
   H        3.16553        -0.72801         0.86460
   H        0.96569        -2.11323         0.06408
   H       -3.43548        -0.38436         0.59747
   H       -3.36284         0.56307        -0.88932
   H       -3.16608         1.36470         0.66369
   H       -1.21417        -3.05141         0.69138
   H       -3.12199        -1.84509        -1.36990
   H       -3.18139        -3.51659        -0.63362
*
