14
 SCF done        -25.569688357133          0.000366197771
C           0.24369455893904   -1.48158615243887   -0.10052608188755
C          -0.45156991095565   -0.31015173335588    0.03882485540155
C          -1.82820070256058   -0.15700131198819    0.19711795369646
N          -2.96380571589480   -0.04469906313690    0.32668342312221
S           0.61428563992734    1.07726805352440   -0.00288572137945
C           1.97833352650922    0.03046847995045   -0.20870349987111
O           3.17694245404729    0.62922337690757   -0.30871206810559
C           4.29736028419706   -0.21227273860625   -0.48573763697548
C           1.62911498306282   -1.29201384256217   -0.24174569548102
H          -0.23143382164184   -2.44632339515554   -0.10096658256080
H           5.15562923212439    0.45184899858829   -0.56045334020925
H           4.20610419068144   -0.80178191944857   -1.40244657640872
H           4.42362538158370   -0.88351184272771    0.36865835082607
H           2.32499989998057   -2.10160690955065   -0.36104738016742
