# ORCA input file
# SCF done        -29.080583800026          0.000477031084
! B3LYP/G D3BJ Opt RIJCOSX def2-SVP def2/J
* xyz 0 1
   C       -3.13665        -0.07797         0.00724
   C       -2.50993        -1.28407         0.00948
   C       -1.11000        -1.12183         0.00108
   C       -0.70508         0.22135        -0.00800
   S       -2.06297         1.28507        -0.00578
   C        0.69738         0.22120        -0.01658
   C        1.10210        -1.12206        -0.01247
   N       -0.00401        -1.93067        -0.00197
   C        2.50198        -1.28459        -0.02134
   C        3.12889        -0.07862        -0.03091
   S        2.05541         1.28464        -0.03115
   H       -4.19190         0.10914         0.01225
   H       -3.02261        -2.22855         0.01689
   H       -0.00408        -2.93553         0.00426
   H        3.01452        -2.22918        -0.02026
   H        4.18417         0.10827        -0.03849
*
