# ORCA input file
# SCF done        -18.036559820577          0.000754674466
! B3LYP/G D3BJ Opt RIJCOSX def2-SVP def2/J
* xyz 0 1
   C       -1.26504        -0.09979        -0.00166
   S       -0.51854         1.44769        -0.00060
   C        1.06151         0.71181         0.00169
   C        0.97176        -0.65381         0.00161
   C       -0.35991        -1.11318        -0.00053
   C        2.21835         1.49744         0.00264
   C        3.20886         2.17859         0.00634
   H       -2.33529        -0.16286        -0.00332
   H        1.83451        -1.29589         0.00265
   H       -0.63115        -2.15401        -0.00118
   H        4.07762         2.76602         0.00600
*
