11
 SCF done        -18.036559820577          0.000754674466
C          -1.26504223239001   -0.09978854320459   -0.00165989458096
S          -0.51854495346009    1.44768845670558   -0.00059969633521
C           1.06151061722695    0.71181369857730    0.00169130978600
C           0.97175736080236   -0.65380709948076    0.00161083434972
C          -0.35991141355595   -1.11318183923439   -0.00053314345734
C           2.21834979635527    1.49744225091967    0.00264039109886
C           3.20885607190133    2.17859296802184    0.00634228010854
H          -2.33529013746796   -0.16286415751986   -0.00331995934477
H           1.83451333260040   -1.29589367230943    0.00264640221461
H          -0.63114687735717   -2.15400955982662   -0.00117864794396
H           4.07761843534489    2.76601749735125    0.00600012410452
