17
 SCF done        -30.728437411408          0.000550110739
C          -1.56283197086206   -1.23104936385257    0.16628443425752
S          -2.72298674784002    0.02058159577345    0.24512501921979
C          -1.52736173260090    1.22916151910566    0.15450239544618
C          -0.26511462354876    0.69342613420442    0.06851301772910
C          -0.27815302493647   -0.74810396692212    0.07460368365072
C           0.96425414523040   -1.43823537834534   -0.00992966079749
S           1.07662707699545   -3.20592730095095   -0.01007793070678
C           2.12338991343806   -0.72151698986874   -0.09302664503498
C           2.13044270084621    0.68877363554088   -0.09784065841592
C           0.96834331738090    1.40032745848991   -0.01931125929227
O           0.91015974662437    2.75975638013085   -0.01961459184920
H          -1.90409632822889   -2.24725047305891    0.19484205030823
H          -1.79375212526275    2.26601277617426    0.16909256840218
H          -0.22686685116271   -3.45212885022356    0.05406536057894
H           3.06425942149997   -1.24599332874034   -0.15804698389707
H           3.07893598457542    1.20311688698820   -0.16612742790819
H           1.80317109785178    3.12025926555490   -0.08222337169076
