# ORCA input file
# SCF done        -36.199713511921          0.000452797101
! B3LYP/G D3BJ Opt RIJCOSX def2-SVP def2/J
* xyz 0 1
   C        3.30255         0.23934        -0.11220
   C        2.31453         1.15141        -0.00187
   C        0.94210         0.81888         0.03389
   C        0.52458        -0.59141        -0.04143
   C        1.36659        -1.64083        -0.15146
   S        3.07499        -1.47924        -0.22268
   C       -0.89306        -0.55741         0.02883
   C       -1.33313         0.76235         0.14101
   C       -2.74444         0.83438         0.18833
   C       -3.31778        -0.39551         0.12147
   S       -2.18318        -1.69504        -0.00574
   C       -0.17957         1.63153         0.14949
   C       -0.15208         3.06470         0.25366
   C       -1.18075         3.86041         0.54153
   H        4.34374         0.51232        -0.13974
   H        2.59735         2.19306         0.06211
   H        1.01964        -2.66086        -0.20209
   H       -3.32369         1.73646         0.25762
   H       -4.36366        -0.63343         0.13766
   H        0.81863         3.51494         0.08541
   H       -2.16559         3.48166         0.74175
   H       -1.06125         4.92871         0.59832
*
