22
 SCF done        -36.199713511921          0.000452797101
C           3.30254525101936    0.23933703366240   -0.11219983156399
C           2.31452970106000    1.15140531887070   -0.00187189410236
C           0.94210455049850    0.81888230495777    0.03389037748938
C           0.52458130577953   -0.59140532787342   -0.04143336045002
C           1.36658984904207   -1.64082523013690   -0.15145536369032
S           3.07499133661193   -1.47923920645138   -0.22267802723102
C          -0.89305631518339   -0.55741146337963    0.02882623553352
C          -1.33312690640400    0.76234988857727    0.14100923093499
C          -2.74443824302512    0.83437699868017    0.18832834025892
C          -3.31777639620334   -0.39551051060520    0.12146658030575
S          -2.18318237676668   -1.69503726411473   -0.00573868333300
C          -0.17957229153881    1.63153385599744    0.14948637667305
C          -0.15207592947700    3.06470149150370    0.25366449251154
C          -1.18075017270547    3.86040737115931    0.54153116655790
H           4.34374334589097    0.51232029665081   -0.13973797727473
H           2.59734994578917    2.19305615708985    0.06210813977130
H           1.01964391744663   -2.66085651638305   -0.20209173731852
H          -3.32368763072421    1.73646258213292    0.25761742361286
H          -4.36365782736385   -0.63342634320124    0.13766478131230
H           0.81863298470693    3.51494219882264    0.08540672029595
H          -2.16559402549646    3.48165977782684    0.74174775668606
H          -1.06125407295664    4.92870658621367    0.59831925302047
