15
 SCF done        -30.800237976811          0.000446980035
C           1.03936495895126    1.50041959168158    0.16016813787107
S           2.44449078937121    0.51737386483924    0.09570778646088
C           1.51141514917106   -0.94489784444787   -0.07906666636869
C           0.17124984585215   -0.64129196859457   -0.08256881130185
C          -0.08953959581685    0.74938388417684    0.05388045107380
S          -1.76118627621522    1.25216451847799    0.06385116607314
C          -2.44787009662145   -0.37937759631685   -0.12185477687292
O          -3.61767977393095   -0.59152425693406   -0.17319000729268
S          -1.22703868100555   -1.67292402189164   -0.22465000224583
C           2.19691690890021   -2.20439537948679   -0.18716263081054
C           1.61333970519255   -3.39183746114196   -0.32301195053854
H           1.12063179355617    2.56165087946959    0.27167076928275
H           3.27551446106342   -2.12775157700748   -0.14756592859320
H           0.54379006006643   -3.50457571930825   -0.36662684969155
H           2.19828075146552   -4.29131691351575   -0.39730068704567
