# ORCA input file
# SCF done        -30.800237976811          0.000446980035
! B3LYP/G D3BJ Opt RIJCOSX def2-SVP def2/J
* xyz 0 1
   C        1.03936         1.50042         0.16017
   S        2.44449         0.51737         0.09571
   C        1.51142        -0.94490        -0.07907
   C        0.17125        -0.64129        -0.08257
   C       -0.08954         0.74938         0.05388
   S       -1.76119         1.25216         0.06385
   C       -2.44787        -0.37938        -0.12185
   O       -3.61768        -0.59152        -0.17319
   S       -1.22704        -1.67292        -0.22465
   C        2.19692        -2.20440        -0.18716
   C        1.61334        -3.39184        -0.32301
   H        1.12063         2.56165         0.27167
   H        3.27551        -2.12775        -0.14757
   H        0.54379        -3.50458        -0.36663
   H        2.19828        -4.29132        -0.39730
*
