15
 SCF done        -40.291649677837          0.000617880222
C          -1.53454914937121   -1.23399394568297    0.16445978512057
S          -2.70459811788661    0.00000007516647    0.25241851688116
C          -1.53454913676101    1.23399391600791    0.16445978425020
C          -0.26098532157512    0.71982361109287    0.07480927858776
C          -0.26098531661643   -0.71982361082035    0.07480927837008
C           0.97342900288721   -1.41157834388576   -0.01272428484099
F           0.96755023407023   -2.75226822320073   -0.01285166249255
C           2.14308535734526   -0.71251715774957   -0.09593171729637
F           3.32156308339255   -1.34025826067243   -0.18050932378589
C           2.14308535302262    0.71251717429653   -0.09593171684262
F           3.32156313474874    1.34025830244580   -0.18050932409949
C           0.97342898314636    1.41157834309166   -0.01272428393725
F           0.96755020117308    2.75226813902970   -0.01285166201173
H          -1.82179415651200   -2.26567925687023    0.18402866622880
H          -1.82179415106366    2.26567923775111    0.18402866586832
