17
 SCF done        -29.243933558194          0.000960674138
C          -1.35484716690305    1.47464778974337    0.04196132795388
C          -0.16048694963918    0.73820911665633    0.08643618120881
N           1.08294899441186    1.20955145572029    0.20250958225839
S           2.10298781471569   -0.03072739672191    0.20589428952306
N           1.03570615053227   -1.22378397657341    0.06293824803040
C          -0.18817250136616   -0.69848542505933    0.00429196380171
C          -1.41538311151408   -1.39940341197456   -0.12378450486206
C          -2.55667229836080   -0.62585850214855   -0.16336015986361
C          -2.52582345105196    0.77702111515138   -0.08243235285421
C          -1.38266115913752   -2.85056313340892   -0.19781083519713
C          -2.42882836788300   -3.65621043335695   -0.35091373596344
H          -1.32576680505504    2.55013759871627    0.10630645518079
H          -3.51777639532315   -1.10701439861642   -0.25800270132237
H          -3.46261864747136    1.31361286552482   -0.11917784978892
H          -0.38687658516685   -3.26729493760215   -0.11671598369566
H          -3.43914712622664   -3.29293717199109   -0.44228759317399
H          -2.30655239456114   -4.72465115405980   -0.39302233123581
