21
 SCF done        -36.859487306415          0.000826916129
C          -1.63288459905402   -1.02829001284127    0.15434354872631
S          -2.75597688191645    0.24623622015085    0.31727918853487
C          -1.53413482977791    1.43384765535542    0.27345102477906
C          -0.28297582774443    0.87525682555554    0.13732772204710
C          -0.34219669041398   -0.56528451396316    0.06711291724203
C           0.87410048273375   -1.30047458083621   -0.07817167501429
C           0.84069793078603   -2.77344496495329   -0.15775779190021
O          -0.15311687949216   -3.45763818774283   -0.07754760222012
O           2.06413545735938   -3.30514069021675   -0.34191530370245
C           2.11023670347213   -4.71940993287570   -0.43412709391251
C           2.05810792055541   -0.60867271418168   -0.14155575930886
C           2.10372205806953    0.79854025122107   -0.06865027515379
C           0.96512992625486    1.53529140046325    0.06641258804957
H          -1.96781449230135   -2.04425315442566    0.13191086471991
H          -1.78868237761385    2.47190650661693    0.34894213971670
H           3.14706293543620   -4.97770144006258   -0.63444350017664
H           1.46347800039445   -5.06922007832474   -1.24171301688902
H           1.77613612786706   -5.17263709988710    0.50185433578921
H           2.98060303384884   -1.15690588276466   -0.24991248757732
H           3.06437646318147    1.28828533327095   -0.12351741467370
H           0.99398553835504    2.61350906044163    0.12059759092417
