# ORCA input file
# SCF done        -36.859487306415          0.000826916129
! B3LYP/G D3BJ Opt RIJCOSX def2-SVP def2/J
* xyz 0 1
   C       -1.63288        -1.02829         0.15434
   S       -2.75598         0.24624         0.31728
   C       -1.53413         1.43385         0.27345
   C       -0.28298         0.87526         0.13733
   C       -0.34220        -0.56528         0.06711
   C        0.87410        -1.30047        -0.07817
   C        0.84070        -2.77344        -0.15776
   O       -0.15312        -3.45764        -0.07755
   O        2.06414        -3.30514        -0.34192
   C        2.11024        -4.71941        -0.43413
   C        2.05811        -0.60867        -0.14156
   C        2.10372         0.79854        -0.06865
   C        0.96513         1.53529         0.06641
   H       -1.96781        -2.04425         0.13191
   H       -1.78868         2.47191         0.34894
   H        3.14706        -4.97770        -0.63444
   H        1.46348        -5.06922        -1.24171
   H        1.77614        -5.17264         0.50185
   H        2.98060        -1.15691        -0.24991
   H        3.06438         1.28829        -0.12352
   H        0.99399         2.61351         0.12060
*
