31
 SCF done        -36.994804535216          0.000884595097
C           1.29849866575941   -0.11058631331037    0.03658651723509
C           0.62351969953144    1.09504160769450    0.07036763131263
C          -0.76401734200838    1.13281759584409    0.04967688320716
C          -1.47110740920649    2.46035266950244    0.07109134113863
C          -1.62089680895721    3.02685366695874   -1.34158049209199
C          -1.48060972389260   -0.06345418943387   -0.01509475452187
C          -0.80350554453322   -1.28442557904658   -0.02378286441234
C           0.58442230266452   -1.29345208400771   -0.00350345237597
C          -1.55400920006728   -2.58701429494549   -0.07872236145813
C          -1.71533215493743   -3.06937063176966   -1.52133548953132
C          -2.95985947880313   -0.04084618840818   -0.04517734994464
C          -3.67975170055928    0.00667308118521   -1.15436449237716
C          -5.17123532972168    0.02628920053520   -1.20136011761971
H           2.37868045657372   -0.12865882888222    0.05071183085412
H           1.17640197695101    2.02283976666389    0.11858051680148
H          -0.89774657143743    3.16479246559558    0.67829678811075
H          -2.46071613270259    2.34821847121521    0.51772443265292
H          -0.64682446431737    3.12252921378671   -1.81617719783858
H          -2.09093239009611    4.00752138181090   -1.31026250679297
H          -2.23544898992783    2.36653098944428   -1.94791245564777
H           1.10660441773060   -2.23993004575035   -0.01492135692663
H          -2.54201139619470   -2.46677658383903    0.37002881534393
H          -1.00722741295695   -3.34243507757605    0.49112526354438
H          -2.30463031071489   -2.35620964029672   -2.09268981845232
H          -2.21829726570849   -4.03411696967544   -1.54548871371218
H          -0.74240412175787   -3.17119057921671   -1.99767868365290
H          -3.45317098643970   -0.07058551488219    0.92141293237409
H          -3.18243971533438    0.03409943453632   -2.11665679801332
H          -5.59451857963601   -0.03979513941275   -0.20163273270636
H          -5.54082873294293   -0.80839805188342   -1.79696121268836
H          -5.52236575635725    0.94564616756415   -1.67127010181070
