# ORCA input file
# SCF done        -25.290412218504          0.000992164537
! B3LYP/G D3BJ Opt RIJCOSX def2-SVP def2/J
* xyz 0 1
   C        0.09644         1.17616        -0.04434
   S       -0.95156        -0.19002         0.03231
   C        0.39148        -1.28395         0.05428
   C        1.59010        -0.59135         0.02348
   C        1.39919         0.81737        -0.04556
   C        2.91164        -1.18145         0.17326
   O        3.95243        -0.60928        -0.04183
   C        0.13761        -2.70307         0.05147
   C        0.91418        -3.61671        -0.52435
   H       -0.33014         2.15849        -0.08442
   H        2.22507         1.50442        -0.07473
   H        2.90068        -2.22267         0.54994
   H       -0.78996        -3.00393         0.52223
   H        1.80425        -3.35316        -1.06902
   H        0.66061        -4.66190        -0.49078
*
