15
 SCF done        -25.290412218504          0.000992164537
C           0.09643629024073    1.17615530026588   -0.04434280974257
S          -0.95156188889825   -0.19002075878012    0.03230978043053
C           0.39147778913949   -1.28394836902318    0.05427595930995
C           1.59010131393791   -0.59135038016091    0.02347767484995
C           1.39919145032309    0.81736604858908   -0.04556067049553
C           2.91163596979039   -1.18145041776841    0.17325535608366
O           3.95242786112566   -0.60927648957584   -0.04182587001799
C           0.13760958465094   -2.70307320280802    0.05146960260195
C           0.91418204084243   -3.61671438100846   -0.52435005127675
H          -0.33014076498548    2.15848804932685   -0.08441862814570
H           2.22506592138806    1.50441551557122   -0.07472668581104
H           2.90068123517196   -2.22267005245205    0.54993879298844
H          -0.78996465833567   -3.00393067571920    0.52222955442844
H           1.80425033694379   -3.35315924429207   -1.06901574474623
H           0.66060751866493   -4.66190094216478   -0.49077626045710
