# ORCA input file
# SCF done        -14.297664266301          0.000640641563
! B3LYP/G D3BJ Opt RIJCOSX def2-SVP def2/J
* xyz 0 1
   C        0.93411        -0.75272         0.00124
   N        0.97028         0.61364         0.00303
   C       -0.31767         1.03537         0.00490
   N       -1.15300         0.03802         0.00545
   C       -0.38916        -1.08566         0.00249
   H        1.82257        -1.34986        -0.00091
   H        1.79834         1.18597         0.00263
   H       -0.59743         2.07007         0.00624
   H       -0.84081        -2.05687         0.00179
*
