9
 SCF done        -14.297664266301          0.000640641563
C           0.93410512610106   -0.75272393144169    0.00124260422688
N           0.97028062428091    0.61364261891798    0.00302553746977
C          -0.31766570301109    1.03537435393567    0.00489960110126
N          -1.15299855872366    0.03802255863201    0.00544526681485
C          -0.38916166958641   -1.08566403676438    0.00249392674064
H           1.82257288240188   -1.34985501911753   -0.00090643689811
H           1.79834226160542    1.18597460895642    0.00263254083265
H          -0.59743410849032    2.07007022108519    0.00624462179700
H          -0.84081085457778   -2.05687137420365    0.00179233791506
