14
 SCF done        -23.168270287698          0.000353316548
C          -1.30195393697644   -0.05005889974245   -0.02797891702030
S          -0.52088403516872    1.48466558356689    0.12581911908695
C           1.03769700204655    0.72170207846657    0.05108329030011
O           2.18081642518852    1.43398214819581    0.12243412924459
C           0.94828812096852   -0.64161490456363   -0.08741498115678
C          -0.41453324148785   -1.06098233018706   -0.12996763256720
C           2.12013422841512   -1.48853083142182   -0.17305453064281
C           2.11214279771901   -2.80492059907902   -0.34644677469179
H          -2.37254120513680   -0.08591908083291   -0.03149372815588
H           1.99059405496079    2.37402094147746    0.21384314628625
H          -0.70931245966983   -2.08887820266895   -0.23197867460393
H           3.05768858118946   -0.95628442989067   -0.08463442281677
H           1.20108264830925   -3.37028733674926   -0.44271513886851
H           3.02827101964239   -3.36674413657099   -0.40019488439393
