12
 SCF done        -15.879640655616          0.000047188797
C           1.37298976958187   -0.22035458587352    0.00507775420287
C           0.87479843492054    1.07147010924341    0.01447625375447
C          -0.49306935150471    1.28599875926244    0.00980753114638
C          -1.36274461420962    0.20869681129282   -0.00419490526494
C          -0.86454744344788   -1.08313457516240   -0.01351871883518
C           0.50331295036880   -1.29766134899055   -0.00892520714266
H           2.44038788313701   -0.38777512979490    0.00868856888965
H           1.55343867625110    1.91213129477377    0.02546630722111
H          -0.88183941460664    2.29405932456486    0.01712095658932
H          -2.43014359148976    0.37610884432068   -0.00781117383195
H          -1.54320602406929   -1.92378170013714   -0.02450180912492
H           0.89209272506858   -2.30571780349947   -0.01636555760417
