# ORCA input file
# SCF done        -15.879640655616          0.000047188797
! B3LYP/G D3BJ Opt RIJCOSX def2-SVP def2/J
* xyz 0 1
   C        1.37299        -0.22035         0.00508
   C        0.87480         1.07147         0.01448
   C       -0.49307         1.28600         0.00981
   C       -1.36274         0.20870        -0.00419
   C       -0.86455        -1.08313        -0.01352
   C        0.50331        -1.29766        -0.00893
   H        2.44039        -0.38778         0.00869
   H        1.55344         1.91213         0.02547
   H       -0.88184         2.29406         0.01712
   H       -2.43014         0.37611        -0.00781
   H       -1.54321        -1.92378        -0.02450
   H        0.89209        -2.30572        -0.01637
*
