# ORCA input file
# SCF done        -28.795592886976          0.000865618735
! B3LYP/G D3BJ Opt RIJCOSX def2-SVP def2/J
* xyz 0 1
   C       -1.35995         0.43398         0.40412
   C       -0.33557         1.05245        -0.24835
   C        0.84686         0.29781        -0.18539
   C        0.68693        -0.88382         0.52018
   S       -0.91298        -1.07948         1.11259
   C        1.92440        -1.58583         0.53186
   C        2.86663        -0.84794        -0.16627
   C        2.25759         0.42310        -0.68252
   C        4.12168        -1.47629        -0.20655
   C        4.10732        -2.66704         0.45640
   S        2.56867        -3.05462         1.14540
   H       -2.37008         0.77374         0.51829
   H       -0.43474         2.00005        -0.74651
   H        2.30315         0.48519        -1.77171
   H        2.75493         1.30664        -0.27643
   H        4.99289        -1.07939        -0.69585
   H        4.91571        -3.35843         0.58839
*
