17
 SCF done        -28.795592886976          0.000865618735
C          -1.35995028762973    0.43397557199479    0.40412355700075
C          -0.33557401131552    1.05245087223832   -0.24834752095331
C           0.84685901420616    0.29781378005145   -0.18538670284805
C           0.68693392166550   -0.88382240350331    0.52017604226191
S          -0.91298031321139   -1.07948015963035    1.11258950330043
C           1.92440324108556   -1.58583190889830    0.53186156771642
C           2.86662971629434   -0.84794389027893   -0.16626975901615
C           2.25758977546250    0.42309500813771   -0.68252314283944
C           4.12168042810370   -1.47628670684766   -0.20654787189058
C           4.10732141226635   -2.66704245085835    0.45640418966360
S           2.56867067363429   -3.05462445202718    1.14540340689333
H          -2.37007644277289    0.77373902560570    0.51828779719061
H          -0.43473952200952    2.00004510867324   -0.74651393988878
H           2.30315473003682    0.48518520648384   -1.77170935742228
H           2.75493104104007    1.30664309386815   -0.27642893837307
H           4.99289022149522   -1.07938899447552   -0.69585343929131
H           4.91570640164854   -3.35842670053360    0.58839460849592
