15
 SCF done        -27.731875793932          0.000505832103
C           0.88325751765255    1.53246133918328    0.16773118310620
S           2.34690359204729    0.61358792005381    0.12636428937016
C           1.53867775725109   -0.92156262134898   -0.06311111236435
C           0.18236302110992   -0.69449223126027   -0.08990008783584
C          -0.16964052237424    0.68565570579513    0.04094835949711
O          -1.52556835835843    0.76693314215197    0.00038882871658
C          -1.91563158760671   -0.52630956796470   -0.14874932906981
N          -0.98996198958082   -1.41132266113493   -0.20653749808735
C           2.27773010881290   -2.14637733874923   -0.16643753818019
C           1.69388431333185   -3.33179968373986   -0.33038765918926
H           0.91264978587866    2.59591265901856    0.27869722386181
H          -2.96856380248751   -0.72329973075143   -0.20533659544988
H           3.35341895173905   -2.05036804174866   -0.10463735033020
H           0.62239895331365   -3.41437304853918   -0.39148569411679
H           2.26995225927075   -4.23691584096554   -0.40504701992821
