# ORCA input file
# SCF done        -27.731875793932          0.000505832103
! B3LYP/G D3BJ Opt RIJCOSX def2-SVP def2/J
* xyz 0 1
   C        0.88326         1.53246         0.16773
   S        2.34690         0.61359         0.12636
   C        1.53868        -0.92156        -0.06311
   C        0.18236        -0.69449        -0.08990
   C       -0.16964         0.68566         0.04095
   O       -1.52557         0.76693         0.00039
   C       -1.91563        -0.52631        -0.14875
   N       -0.98996        -1.41132        -0.20654
   C        2.27773        -2.14638        -0.16644
   C        1.69388        -3.33180        -0.33039
   H        0.91265         2.59591         0.27870
   H       -2.96856        -0.72330        -0.20534
   H        3.35342        -2.05037        -0.10464
   H        0.62240        -3.41437        -0.39149
   H        2.26995        -4.23692        -0.40505
*
