# ORCA input file
# SCF done        -53.830483154515          0.000692445318
! B3LYP/G D3BJ Opt RIJCOSX def2-SVP def2/J
* xyz 0 1
   C        1.78136        -1.27473        -1.12604
   S        2.67631         0.14327        -0.78676
   C        1.24342         0.97221        -0.23524
   C        0.14610         0.15063        -0.30245
   C        0.46205        -1.13551        -0.82154
   C       -0.57257        -2.19579        -1.08149
   C       -0.75200        -2.33326        -2.59385
   F        0.35663        -2.81100        -3.18639
   F       -1.73716        -3.18736        -2.91696
   F       -1.03676        -1.17946        -3.21330
   C       -1.90350        -1.88349        -0.38881
   C       -2.26578        -0.40430        -0.48185
   C       -1.22196         0.42674         0.26570
   O       -1.28557         0.03174         1.63234
   C       -0.60281         0.87131         2.52312
   C        1.40511         2.35449         0.16890
   C        0.53421         3.33778        -0.02336
   H        2.27814        -2.12806        -1.54304
   H       -0.20178        -3.17348        -0.75160
   H       -1.80865        -2.13692         0.66738
   H       -2.69531        -2.49650        -0.82190
   H       -3.23723        -0.24547        -0.01360
   H       -2.31715        -0.07039        -1.51795
   H       -1.46753         1.49452         0.19497
   H       -0.80832         0.48497         3.52000
   H       -0.96069         1.90546         2.44939
   H        0.47858         0.86277         2.34669
   H        2.36752         2.57808         0.61322
   H       -0.40988         3.18889        -0.51748
   H        0.75380         4.34194         0.29510
*
