30
 SCF done        -53.830483154515          0.000692445318
C           1.78136232683347   -1.27472814555231   -1.12604434878298
S           2.67630868260981    0.14327344495109   -0.78675788140778
C           1.24342058456664    0.97220990448590   -0.23524468905237
C           0.14609892315142    0.15063225619940   -0.30244508243401
C           0.46204673468434   -1.13551081579227   -0.82154179776621
C          -0.57257332137769   -2.19578618314635   -1.08148897384333
C          -0.75199645365911   -2.33325760766191   -2.59384737736216
F           0.35662546226065   -2.81099605839664   -3.18638603483335
F          -1.73715584663487   -3.18736141299991   -2.91695651154679
F          -1.03676482778926   -1.17946237014583   -3.21329889183885
C          -1.90349906189793   -1.88349021872945   -0.38881121231141
C          -2.26577883245376   -0.40429518475178   -0.48184742585363
C          -1.22196216066527    0.42674234072214    0.26569701130620
O          -1.28557151793192    0.03174179390542    1.63233738510633
C          -0.60281384795154    0.87130682356069    2.52312479938581
C           1.40511456425584    2.35449071766235    0.16889871459470
C           0.53421325731020    3.33778400672039   -0.02336173593375
H           2.27814036431362   -2.12805611552240   -1.54304041627852
H          -0.20177678767253   -3.17347726621452   -0.75160239428105
H          -1.80865081920920   -2.13691916312428    0.66737712483098
H          -2.69531461373112   -2.49649568990050   -0.82190313787031
H          -3.23723316999161   -0.24547113424781   -0.01360037726926
H          -2.31714651060668   -0.07038647027326   -1.51795190969236
H          -1.46752848902704    1.49452437286518    0.19497369040036
H          -0.80832374361841    0.48496562170594    3.52000253900377
H          -0.96068750298321    1.90546071214999    2.44938802987251
H           0.47857685304007    0.86277302843242    2.34668713785474
H           2.36752182550868    2.57807540246360    0.61322187685266
H          -0.40987657170142    3.18889441531212   -0.51748035532851
H           0.75380450036781    4.34193899532248    0.29510224447872
