27
 SCF done        -39.919118178006          0.000401822817
C           1.28954821277248    1.13373884844502    0.38233385377558
S           2.47500626502526   -0.04904508900936    0.00290551497413
C           1.25700121057773   -1.19786836776240   -0.37666308776651
C           0.00659837749899   -0.69119373125760   -0.21721363058585
C           0.02563929911933    0.66329543031717    0.21903816842319
C          -1.22273219071326    1.46690319111402    0.44644975570153
H          -1.38715023223525    2.12359790517871   -0.43020101741543
O          -1.01743037738220    2.27460060988967    1.59030729083785
C          -1.95345571439353    3.30738530220048    1.75861700313748
C          -2.42424465068159    0.52026270435009    0.58107353411640
C          -2.44394428593715   -0.48579106855308   -0.56384235041729
C          -1.26278838417666   -1.46046613617146   -0.44841270855942
H          -1.43733474211815   -2.12623617366772    0.41936042092449
O          -1.08260339497426   -2.25560416500144   -1.60556490361377
C          -2.04611154999520   -3.26041906770948   -1.78665881062727
H           1.58826216951384    2.10702669267640    0.71349998641180
H           1.52873223354997   -2.17934907560345   -0.70706128525421
H          -1.57740540434419    3.92843683452793    2.56959170821776
H          -2.94458637364895    2.92725878130944    2.03024910990791
H          -2.04374137174337    3.91364294307613    0.84840925411011
H          -3.35117831696775    1.09673025977073    0.57803095541451
H          -2.34745336708884   -0.00204137777261    1.53765627913190
H          -2.36874283145213    0.03569017911960   -1.52116710682030
H          -3.38397686121694   -1.04065069768330   -0.54798681627968
H          -1.69427078661587   -3.87245863750479   -2.61507714108800
H          -3.02968084040062   -2.84931685914742   -2.03926133434258
H          -2.14274609197134   -3.88424923513195   -0.88921264231477
