# ORCA input file
# SCF done        -37.569031947158          0.000199577827
! B3LYP/G D3BJ Opt RIJCOSX def2-SVP def2/J
* xyz 0 1
   C       -2.51477        -1.16464         0.03478
   C       -3.42272        -0.17233        -0.04997
   S       -2.72900         1.41481        -0.15914
   C       -1.13400         0.72916        -0.09321
   C       -1.16971        -0.68590         0.01404
   C        0.03989        -1.38150         0.08101
   C        0.08121        -2.87742         0.17071
   C        0.07048        -3.49722        -1.22865
   C        1.20674        -0.61644         0.01550
   C        1.08778         0.79435        -0.09116
   N       -0.04363         1.46418        -0.14264
   S        2.63958         1.57314        -0.15365
   C        3.42567         0.02966        -0.04475
   C        2.57784        -1.01465         0.03759
   H       -2.77941        -2.20423         0.10414
   H       -4.49162        -0.26207        -0.05762
   H       -0.78215        -3.23511         0.73374
   H        0.98230        -3.18973         0.70016
   H       -0.82883        -3.20515        -1.76639
   H        0.09851        -4.58215        -1.16033
   H        0.93403        -3.16171        -1.79876
   H        4.49801         0.00324        -0.05072
   H        2.90380        -2.03676         0.10573
*
