23
 SCF done        -37.569031947158          0.000199577827
C          -2.51477227268858   -1.16463613301876    0.03477991890281
C          -3.42272025502920   -0.17232828498182   -0.04997057173601
S          -2.72900087208549    1.41481114843673   -0.15914008280021
C          -1.13400098057435    0.72916427319116   -0.09321445621205
C          -1.16971299601880   -0.68589736458241    0.01403624042264
C           0.03989219325131   -1.38149695608203    0.08101326900699
C           0.08121191782913   -2.87742339184741    0.17070564515873
C           0.07048130761939   -3.49722094801765   -1.22864810245094
C           1.20674260382868   -0.61644242429909    0.01549553395855
C           1.08777785775368    0.79435419046105   -0.09115713783175
N          -0.04363214660666    1.46418165459412   -0.14263793415792
S           2.63957800002623    1.57313784608139   -0.15364505896798
C           3.42566897642512    0.02966226442140   -0.04475496896706
C           2.57784184574122   -1.01465153924098    0.03759335460001
H          -2.77941310440224   -2.20422569737261    0.10414157193189
H          -4.49161515397503   -0.26207119746207   -0.05761811953933
H          -0.78214958676138   -3.23510729397010    0.73374263948198
H           0.98229649206635   -3.18972676281196    0.70015928102345
H          -0.82882741927915   -3.20515308469722   -1.76638621132288
H           0.09851245898332   -4.58215243753826   -1.16032661379577
H           0.93403309706382   -3.16170858421323   -1.79876262533098
H           4.49801389380192    0.00324131213793   -0.05071506971324
H           2.90380414303072   -2.03676058918816    0.10572949833901
