26
 SCF done        -51.583711371978          0.000674180824
C           1.20513627866603    0.27035126936783   -0.22162218186568
C           0.87332183904097   -1.02824654092593   -0.02588048913676
N           1.75359598587832   -2.14065367874382   -0.11376164644347
O           1.28239784123536   -3.24243855847112    0.07779120092190
O           2.91696000783626   -1.91120256508090   -0.37565528270931
C          -0.54326882589689   -1.13082189609143    0.31258689573091
C          -1.06788578035109    0.10706812934054    0.28213045007603
C          -0.01276810916690    1.05542842230979   -0.06277261126033
C          -0.06926026083908    2.41440101650966   -0.17555172112746
C           1.08715613753686    3.28708770734163   -0.15126646280775
C           0.66874981436092    4.55114032551581    0.05735640444338
C          -0.78513227842735    4.56082057148268    0.08106596545631
N          -1.52384236613205    5.75785585575713    0.22260929780150
O          -2.73963460406254    5.69647272512631    0.19460220580090
O          -0.88882670482232    6.78363345889343    0.37478687159849
C          -1.26450298308017    3.28809561330685   -0.11015740106027
C          -2.63259563105810    2.90164836769675   -0.31810489090912
C          -3.01966505958293    1.94455171787200   -1.16352525553675
H           2.17004197401482    0.64605769165593   -0.49838229051234
H          -1.02874032725844   -2.05807267079800    0.54819900776423
H          -2.07415660967355    0.38436591767615    0.52387944452780
H           2.10320226750689    2.94971360052307   -0.19616520626521
H           1.26183358449526    5.43733090943269    0.18123170732708
H          -3.37135984099962    3.51471451020185    0.18250561888375
H          -2.31708212818847    1.38458953595457   -1.75878711932362
H          -4.06218422103331    1.72160856414533   -1.30970251137468
