14
 SCF done        -28.374908806630          0.000175336274
C          -1.28423022233080   -1.24147794203140    0.00563360744192
S          -2.46783554928685    0.00974639366296    0.00876547789970
C          -1.26918848741230    1.24640412617558    0.00533158292893
C          -0.01980760463135    0.70881285785590    0.00129543238540
C          -0.02844631314076   -0.71909260253128    0.00147861241791
C           1.34404115273657   -1.24221511284319   -0.00252023900192
O           1.70061934900078   -2.39157088718353    0.00068974988383
C           2.25423226043916   -0.01883917594938   -0.01160728284551
C           1.35882515067078    1.21540076024711   -0.00285183909438
O           1.72918453179697    2.36039850893479    0.00008921527792
H          -1.58753705582940   -2.26941547473065    0.00672639124883
H          -1.55961814658929    2.27806243880651    0.00615296435017
H           2.89752577990166   -0.02282188162306   -0.89452816488433
H           2.91903515467483   -0.02273200879035    0.85501449199153
