# ORCA input file
# SCF done        -37.125728592855          0.000507544321
! B3LYP/G D3BJ Opt RIJCOSX def2-SVP def2/J
* xyz 0 1
   N        2.37070         1.32301         0.20483
   C        1.23243         0.80144        -0.53982
   C       -0.07772         1.28477         0.06119
   C       -1.27702         0.66241        -0.65328
   N       -2.48404         1.06059         0.05308
   S       -2.83954        -0.21328         1.15139
   N       -2.34030        -1.44252         0.05971
   C       -1.19296        -0.91209        -0.65984
   C        0.07897        -1.41171         0.02441
   C        1.31832        -0.75980        -0.58014
   N        2.48636        -1.10698         0.21734
   S        3.62693         0.19925         0.00334
   H        2.14556         1.41109         1.19282
   H        1.32926         1.18056        -1.56500
   H       -0.14157         2.37045        -0.01885
   H       -0.13050         1.02594         1.11984
   H       -1.31971         1.03957        -1.68023
   H       -3.26749         1.22654        -0.57166
   H       -3.10219        -1.70721        -0.55748
   H       -1.21364        -1.28119        -1.69085
   H        0.13600        -2.49521        -0.08793
   H        0.02678        -1.19710         1.09141
   H        1.41833        -1.07998        -1.62988
   H        2.90291        -1.99294        -0.03927
*
