# ORCA input file
# SCF done        -35.935084520816          0.000948768241
! B3LYP/G D3BJ Opt RIJCOSX def2-SVP def2/J
* xyz 0 1
   C        1.44850         1.22393        -0.26010
   S        2.67919         0.02631        -0.20946
   C        1.50733        -1.20660         0.02603
   C        0.24082        -0.71539         0.06401
   C        0.20571         0.69687        -0.10237
   C       -1.07537         1.47152        -0.13733
   C       -2.21978         0.66772         0.48009
   C       -2.24938        -0.75814        -0.07946
   N       -2.41842        -0.66737        -1.55623
   O       -1.57533        -1.15236        -2.26670
   O       -3.41673        -0.10426        -1.94068
   C       -0.99318        -1.53717         0.28405
   H        1.71573         2.25098        -0.40922
   H        1.82291        -2.22622         0.12089
   H       -1.31599         1.71632        -1.17741
   H       -0.95736         2.41806         0.39349
   H       -3.17082         1.15978         0.27115
   H       -2.09180         0.60623         1.56201
   H       -3.14426        -1.27435         0.28568
   H       -0.93471        -2.45475        -0.30510
   H       -1.05806        -1.82281         1.33773
*
