# ORCA input file
# SCF done        -38.601939223543          0.000413550305
! B3LYP/G D3BJ Opt RIJCOSX def2-SVP def2/J
* xyz 0 1
   C        3.38542         0.13781        -0.00787
   C        2.47006         1.12921        -0.05695
   C        1.13314         0.64302         0.00369
   C        1.10167        -0.76264         0.09916
   S        2.69633        -1.44796         0.11485
   N        0.00519        -1.49849         0.17162
   C       -1.12519        -0.83434         0.14884
   C       -1.24204         0.56840         0.06941
   C       -0.09649         1.33353        -0.00377
   C       -0.12134         2.83351        -0.03029
   C        0.07592         3.39478         1.37958
   C       -2.66113         1.05133         0.13501
   C       -3.56198        -0.13142        -0.20989
   S       -2.65930        -1.66579         0.23673
   H        4.45352         0.23055        -0.03468
   H        2.72946         2.16980        -0.13217
   H       -1.07206         3.18809        -0.43045
   H        0.67629         3.19815        -0.67988
   H       -0.72253         3.05954         2.03779
   H        0.07295         4.48190         1.35687
   H        1.02341         3.05708         1.79351
   H       -2.84555         1.87684        -0.55418
   H       -2.87110         1.40491         1.14941
   H       -3.76365        -0.18196        -1.28063
   H       -4.50517        -0.12152         0.33081
*
