25
 SCF done        -38.601939223543          0.000413550305
C           3.38542206092047    0.13780838139451   -0.00786921527036
C           2.47006345504205    1.12921481371373   -0.05695339019013
C           1.13313796653574    0.64301668559127    0.00369334548461
C           1.10166753854841   -0.76264385430253    0.09915693424393
S           2.69632946939520   -1.44796078375234    0.11485429865728
N           0.00519063995614   -1.49849404096494    0.17162301645316
C          -1.12518658887859   -0.83433850011717    0.14884472181517
C          -1.24203754733283    0.56839509817671    0.06940776099505
C          -0.09648949324905    1.33352569531372   -0.00376513378395
C          -0.12133729547301    2.83350635852711   -0.03028832314593
C           0.07592485931409    3.39477654917747    1.37957939428008
C          -2.66113458028693    1.05133457324916    0.13501307736593
C          -3.56197866023080   -0.13142197104771   -0.20988646122355
S          -2.65930361037166   -1.66578847066053    0.23672598827435
H           4.45352353105918    0.23054944085970   -0.03468236209908
H           2.72945774591426    2.16980135047688   -0.13216529855103
H          -1.07206430856392    3.18809447900330   -0.43044870308779
H           0.67628741702924    3.19814717092389   -0.67988453551818
H          -0.72253379251909    3.05954326594766    2.03779239876421
H           0.07295189426057    4.48189755218656    1.35687029036467
H           1.02341186093724    3.05708353504398    1.79350524122367
H          -2.84555427737183    1.87684152708701   -0.55418141434488
H          -2.87110401968386    1.40490725357858    1.14940708054878
H          -3.76364880562944   -0.18196360403887   -1.28063497362598
H          -4.50516545932167   -0.12152250536710    0.33080626236987
