# ORCA input file
# SCF done        -20.208523075947          0.000172699486
! B3LYP/G D3BJ Opt RIJCOSX def2-SVP def2/J
* xyz 0 1
   C        0.63065        -0.95376        -0.13529
   O        1.02384         0.33442        -0.15694
   C       -0.09835         1.04886         0.08266
   N       -1.15081         0.29662         0.24985
   C       -0.70708        -0.97992         0.11509
   C       -0.02920         2.48769         0.12791
   C       -1.08844         3.25387         0.36221
   H        1.36736        -1.71119        -0.30417
   H       -1.37013        -1.81490         0.20588
   H        0.95513         2.90005        -0.04386
   H       -2.05502         2.81209         0.52938
   H       -1.01450         4.32654         0.39152
*
