9
 SCF done        -14.645030953587          0.000348833044
C          -1.12908726548985   -0.01944627666939    0.00002797520362
O          -0.35396177650628    1.07681918853258   -0.00107392043553
C           0.92112724985160    0.65638287484139   -0.00102475632036
C           0.97854565954659   -0.70220560728242    0.00062800324493
C          -0.36734997413795   -1.14586644778492    0.00030149781980
H          -2.19087576893862    0.12850578059456    0.00014089640654
H           1.68680326092303    1.40673519539342   -0.00201116942799
H           1.85860953123587   -1.31191009525057    0.00123162703766
H          -0.71233091648439   -2.15939461237465    0.00072984647133
