# ORCA input file
# SCF done        -24.477833488997          0.000686348975
! B3LYP/G D3BJ Opt RIJCOSX def2-SVP def2/J
* xyz 0 1
   C       -1.40507        -0.01698        -0.21133
   S       -0.41428         1.38692        -0.37329
   C        1.00579         0.46998        -0.08380
   C        0.72826        -0.84328         0.12799
   O        1.67338        -1.80010         0.42025
   C        2.01596        -2.61590        -0.68529
   C       -0.67546        -1.13483         0.05295
   N       -1.15977        -2.42855         0.17810
   H       -2.46651         0.06946        -0.32395
   H        1.96444         0.94761        -0.06907
   H        2.70015        -3.37200        -0.30339
   H        2.51717        -2.02907        -1.46244
   H        1.13290        -3.09687        -1.11596
   H       -0.58321        -3.00720         0.77368
   H       -2.14082        -2.48652         0.40691
*
