15
 SCF done        -24.477833488997          0.000686348975
C          -1.40507454387083   -0.01697580832345   -0.21133338223115
S          -0.41428439375305    1.38692440882333   -0.37329163846078
C           1.00579338456257    0.46998169989330   -0.08380307166318
C           0.72826267854182   -0.84328488762633    0.12798514867158
O           1.67337970398326   -1.80010108174079    0.42024546763273
C           2.01595991827759   -2.61590487074858   -0.68529104378821
C          -0.67546045026267   -1.13483353468633    0.05294862385815
N          -1.15976573413282   -2.42854770716530    0.17809716644230
H          -2.46650534319684    0.06946375582936   -0.32394586653079
H           1.96444068741886    0.94761207128611   -0.06906578495362
H           2.70015263384464   -3.37200111208216   -0.30339287627299
H           2.51717174352755   -2.02907446215798   -1.46244283824645
H           1.13290412012517   -3.09686770148887   -1.11596349308683
H          -0.58321422524179   -3.00719990359489    0.77368380899630
H          -2.14082017982335   -2.48652086621741    0.40690977963294
