24
 SCF done        -34.820928828190          0.000399766861
C           1.52242260220128   -1.29633909498373   -0.11588352998216
S           2.75988459534418   -0.10899597507240   -0.08752020231699
C           1.58667195089906    1.17573206936544    0.01325428264931
C           0.30807114599634    0.66869815667293    0.00600818525327
C           0.27738683463684   -0.75044784949537   -0.06724736998955
C          -0.99332324596064   -1.54031608317948   -0.13565148705435
C          -2.17784249187026   -0.70395151637746    0.33886656697855
C          -2.16468561474628    0.65144827814207   -0.36156909370025
C          -0.95234507876547    1.48931893457410    0.06813692166021
O          -1.15182755540871    2.05097156105465    1.35535466426198
C           2.08851468147021    2.52761575147442    0.05407118610867
C           1.43608132844496    3.60424641288185    0.48195727025987
H           1.78580595741170   -2.33410648891589   -0.17064541147941
H          -0.89924757103713   -2.45287584440045    0.45728539573354
H          -1.16068572771449   -1.84196749224873   -1.17496694114689
H          -2.12474103549857   -0.56516942681681    1.42216407511911
H          -3.11034374831820   -1.22764668414486    0.12097199879089
H          -3.06789624298042    1.21481711900547   -0.12058323867552
H          -2.12988433679010    0.50271573784077   -1.44235282343505
H          -0.85623858523397    2.35887179363438   -0.59372648356410
H          -1.16362974848563    1.33530005049469    2.00092956032817
H           3.11275529674947    2.62383302727660   -0.28660960523515
H           0.44173524551353    3.55737972648181    0.88590224334500
H           1.90481134414229    4.57343783673602    0.46037383609087
