26
 SCF done        -36.679626282598          0.000224799035
C           1.96632190751815   -0.27738769933870   -0.23622793155309
C           1.06162725068621    0.76443731844424   -0.38337629300973
O           1.35510080072650    2.08525715357968   -0.23173056272784
C           2.67942349540202    2.45898976235453    0.08980890501192
C           2.71945121067232    3.97592075864821    0.19188637637848
C          -0.26834540054534    0.49282622985112   -0.71224858965958
C          -0.69278196804952   -0.81282456250110   -0.89369175588060
O          -1.96184981587168   -1.17815675327116   -1.21348108978001
C          -2.94365084122687   -0.17435036729681   -1.37516055472215
C          -4.25717487581067   -0.86300287676897   -1.71215418466841
C           0.22277779342878   -1.85926788929714   -0.74548798879312
C           1.53070827567485   -1.58205805058339   -0.42087986519222
H           2.99760419070318   -0.09411606888640    0.01806885460762
H           3.36961755495594    2.11327000328119   -0.69257150956955
H           2.97851577347658    2.00697855972123    1.04593628043698
H           2.41432595474113    4.41877714271832   -0.75223736097723
H           3.72650261570839    4.30459115470967    0.43221863779959
H           2.03813105584043    4.31325868521334    0.96807199082989
H          -0.93210565828336    1.33524383570518   -0.81565512387321
H          -2.65421038013027    0.50934139867009   -2.18546125288065
H          -3.04627761642169    0.40566374815076   -0.44743446444332
H          -4.14943164696582   -1.43903314276046   -2.62706687272787
H          -5.04034607306792   -0.12214387777922   -1.84574059833715
H          -4.53729303407034   -1.53924873594585   -0.90918846286878
H          -0.12133925079064   -2.87019327885875   -0.89057496974083
H           2.23535868169975   -2.39229244775968   -0.30620161365946
