# ORCA input file
# SCF done        -23.949213895613          0.000276986940
! B3LYP/G D3BJ Opt RIJCOSX def2-SVP def2/J
* xyz 0 1
   C       -1.45760        -1.25474         0.15606
   S       -2.65226        -0.03944         0.23392
   C       -1.50777         1.22425         0.15520
   C       -0.22684         0.73414         0.07060
   C       -0.19670        -0.71192         0.07098
   N        0.97068        -1.39332        -0.00595
   C        2.04293        -0.67081        -0.07882
   N        2.13518         0.67976        -0.08681
   C        1.03660         1.36854        -0.01463
   H       -1.72790        -2.29025         0.17578
   H       -1.82970         2.24616         0.17490
   H        2.98691        -1.19626        -0.13993
   H        1.12460         2.44856        -0.02210
*
