# ORCA input file
# SCF done        -54.468622619944          0.000630390860
! B3LYP/G D3BJ Opt RIJCOSX def2-SVP def2/J
* xyz 0 1
   C       -2.17245         0.08617         1.31533
   C       -1.08300        -0.69172         1.08627
   C        0.12911        -0.10985         0.61573
   C        1.37179        -0.62339         0.28993
   C        1.93323        -2.01090         0.19191
   C        1.03180        -3.15188         0.67742
   N       -0.02228        -3.44776        -0.28122
   C        2.39128        -2.33131        -1.25103
   N        3.44747        -3.33010        -1.21488
   C        2.22421         0.51756         0.00239
   C        3.54585         0.60040        -0.23039
   C        4.22877         1.90986        -0.43061
   C        3.30981         3.08928        -0.47387
   C        1.99486         2.99437        -0.20299
   C        1.41236         1.73649         0.07919
   C        0.14671         1.34705         0.46319
   C       -1.01498         2.11445         0.71008
   C       -2.15250         1.49262         1.11280
   C        5.20206         2.10164         0.71475
   C        6.51036         2.19190         0.57673
   H       -3.08712        -0.36481         1.67432
   H       -1.14478        -1.74641         1.29834
   H        2.83249        -2.03247         0.82379
   H        0.66540        -2.91080         1.68964
   H        1.64991        -4.05160         0.74851
   H       -0.57431        -2.61987        -0.47567
   H       -0.63814        -4.16460         0.08488
   H        2.68757        -1.40335        -1.76558
   H        1.54318        -2.76454        -1.78270
   H        4.31493        -2.92497        -0.87658
   H        3.61700        -3.70273        -2.14134
   H        4.18947        -0.26903        -0.22414
   H        4.81360         1.86501        -1.35954
   H        3.77399         4.03959        -0.69061
   H        1.36733         3.87435        -0.20606
   H       -0.97735         3.18621         0.57815
   H       -3.05362         2.05685         1.30428
   H        4.73428         2.17145         1.68699
   H        6.99146         2.12593        -0.38586
   H        7.15922         2.33926         1.42345
*
