40
 SCF done        -54.468622619944          0.000630390860
C          -2.17245011010705    0.08616502091191    1.31533076918985
C          -1.08299970751347   -0.69172094109303    1.08626526175417
C           0.12910508241924   -0.10984520734563    0.61572914434868
C           1.37179278339752   -0.62338906925757    0.28993324377629
C           1.93322732086441   -2.01090335530131    0.19191433493670
C           1.03180404845237   -3.15188007354520    0.67741993893483
N          -0.02228418291038   -3.44776406153207   -0.28121564849785
C           2.39127896476457   -2.33130918147544   -1.25102769936380
N           3.44746730677539   -3.33010005233751   -1.21488465303857
C           2.22420519069895    0.51756041898289    0.00239214643358
C           3.54585411667699    0.60040157988210   -0.23039465460548
C           4.22877096527048    1.90986229418100   -0.43061230200507
C           3.30980833757044    3.08928322012599   -0.47386845329028
C           1.99485666895310    2.99437370794070   -0.20299001187592
C           1.41236271687869    1.73649035817184    0.07919165033337
C           0.14671456533352    1.34705493123531    0.46319385400203
C          -1.01497542924793    2.11445074167613    0.71007948384249
C          -2.15249680856996    1.49262159336582    1.11279675061108
C           5.20205972237028    2.10163879313154    0.71474898108960
C           6.51035607223523    2.19190494967386    0.57672688001171
H          -3.08711540515946   -0.36481225040605    1.67431632407321
H          -1.14478247044414   -1.74640535302478    1.29833604865066
H           2.83248714984279   -2.03246943820786    0.82379138904441
H           0.66539832101021   -2.91079948956872    1.68963609139866
H           1.64990976137930   -4.05160035929449    0.74850924663769
H          -0.57431118044155   -2.61987127563807   -0.47567392196472
H          -0.63814163057054   -4.16460274773523    0.08487775464792
H           2.68756872270789   -1.40335324646734   -1.76558369106857
H           1.54318405862700   -2.76453769689332   -1.78270232951539
H           4.31492889269145   -2.92497467504480   -0.87658494062876
H           3.61699881815647   -3.70272616948910   -2.14133895955645
H           4.18946509502781   -0.26903131686407   -0.22414233215997
H           4.81359653615809    1.86501413833999   -1.35953580942520
H           3.77398888277063    4.03959051368667   -0.69061477985479
H           1.36732908741855    3.87435070601390   -0.20606061037456
H          -0.97735325618090    3.18620695039968    0.57815023868286
H          -3.05361916135376    2.05685312664217    1.30427583216669
H           4.73427714108072    2.17144510585391    1.68698637139800
H           6.99145581542083    2.12593217835962   -0.38586276345201
H           7.15921719753714    2.33925563193864    1.42345182469997
