# ORCA input file
# SCF done        -38.213173779098          0.000415238482
! B3LYP/G D3BJ Opt RIJCOSX def2-SVP def2/J
* xyz 0 1
   C        3.45099         0.12828        -0.06574
   C        2.54459         1.17997        -0.07688
   C        1.19668         0.89392        -0.03507
   C        0.75155        -0.43681         0.01714
   C        1.66076        -1.48289         0.02811
   C        3.01292        -1.18665        -0.01364
   C       -0.69950        -0.43467         0.05215
   C       -1.14541         0.89625         0.02137
   C        0.02606         1.83432        -0.03504
   C       -2.48947         1.18543         0.04399
   C       -3.42475         0.14486         0.10392
   C       -2.96509        -1.17556         0.12997
   C       -1.61669        -1.47355         0.10428
   C       -4.84050         0.48646         0.13521
   C       -5.86069        -0.34750         0.30035
   H        4.51051         0.33649        -0.09793
   H        2.89301         2.20222        -0.11736
   H        1.32289        -2.50781         0.06863
   H        3.73702        -1.98848        -0.00557
   H        0.04757         2.50557         0.82727
   H        0.00544         2.45631        -0.93334
   H       -2.83066         2.21155         0.01983
   H       -3.67878        -1.98400         0.16528
   H       -1.28422        -2.50103         0.12364
   H       -5.04788         1.54370         0.01710
   H       -5.73357        -1.40810         0.43321
   H       -6.87678         0.00829         0.31190
*
