27
 SCF done        -38.213173779098          0.000415238482
C           3.45098525231820    0.12828239233952   -0.06574123343537
C           2.54459155749807    1.17996965976517   -0.07687999727846
C           1.19668439365518    0.89392059849982   -0.03507090481389
C           0.75154950641745   -0.43680516366248    0.01713527234817
C           1.66076285855383   -1.48288764300186    0.02811203944330
C           3.01292460206805   -1.18665258757251   -0.01363736459461
C          -0.69949723272875   -0.43466960326686    0.05215462688447
C          -1.14541214952720    0.89624500974777    0.02136804346335
C           0.02605994963925    1.83432239119373   -0.03504175652418
C          -2.48947327079691    1.18543040516995    0.04398562358485
C          -3.42475135047346    0.14485915210463    0.10391958681045
C          -2.96509468211527   -1.17555828770100    0.12996978427689
C          -1.61668755685979   -1.47355060972440    0.10428211594972
C          -4.84050449084908    0.48645759599544    0.13521059481225
C          -5.86069289671673   -0.34750122445055    0.30034739247677
H           4.51050861865011    0.33649084327443   -0.09793217338257
H           2.89301449304971    2.20221826732828   -0.11735622971907
H           1.32289100392843   -2.50781039697180    0.06862587937381
H           3.73701774108125   -1.98847660380710   -0.00557251919752
H           0.04756566056566    2.50556558500539    0.82727276849144
H           0.00543671913380    2.45631076028553   -0.93334013306071
H          -2.83066341933830    2.21154647566924    0.01983183289105
H          -3.67877755600999   -1.98399806292722    0.16527826488399
H          -1.28422375687222   -2.50102877572887    0.12364485247185
H          -5.04788302806915    1.54370403145496    0.01709652437045
H          -5.73357162533383   -1.40809682813883    0.43321398186693
H          -6.87677934086790    0.00829261911969    0.31190312760653
