# ORCA input file
# SCF done        -31.856605935306          0.000407056891
! B3LYP/G D3BJ Opt RIJCOSX def2-SVP def2/J
* xyz 0 1
   C       -1.52216        -1.23303         0.15222
   S       -2.69753         0.00002         0.23340
   C       -1.52215         1.23302         0.15222
   C       -0.24809         0.72085         0.06714
   C       -0.24809        -0.72086         0.06714
   C        0.97824        -1.42466        -0.01507
   C        2.13159        -0.71173        -0.09247
   F        3.31392        -1.34696        -0.17225
   C        2.13159         0.71174        -0.09247
   F        3.31393         1.34697        -0.17225
   C        0.97823         1.42465        -0.01507
   H       -1.82045        -2.26160         0.17179
   H       -1.82044         2.26159         0.17179
   H        0.99691        -2.50230        -0.01655
   H        0.99690         2.50229        -0.01655
*
