15
 SCF done        -31.856605935306          0.000407056891
C          -1.52215880819886   -1.23302889584943    0.15222044311660
S          -2.69753355925482    0.00001660481397    0.23340153831496
C          -1.52214947576618    1.23302416423676    0.15222020767079
C          -0.24809248511473    0.72085207892823    0.06714174616571
C          -0.24809079222170   -0.72085824055804    0.06714191593561
C           0.97823807441943   -1.42465907042276   -0.01507337429898
C           2.13158823915913   -0.71173477599654   -0.09246975679534
F           3.31392163725809   -1.34696399390216   -0.17224923669032
C           2.13158654419296    0.71173792998176   -0.09246987356269
F           3.31392746009336    1.34697457030874   -0.17224853455712
C           0.97823173310462    1.42465206880797   -0.01507337701371
H          -1.82045016657955   -2.26159914845671    0.17179353923872
H          -1.82043544346773    2.26159428667997    0.17179297715611
H           0.99690887584185   -2.50230215437007   -0.01654939141825
H           0.99689816653412    2.50229457579833   -0.01654882326207
