17
 SCF done        -32.636406656991          0.000921389372
C          -1.98797169338984    0.97985911283375    0.35490968280788
S          -2.96090005640901   -0.34341331626036   -0.13829679594689
C          -1.56951537037403   -1.27448049698484   -0.50149704068718
C          -0.41058130288689   -0.59856487664064   -0.26266655052111
C          -0.65632489854176    0.72046966857088    0.23364435558169
S           0.54690271854040    1.93866815738708    0.66150281059418
C           2.00917162611135    1.31763474734446   -0.25340019341502
C           2.54841247453681    0.19202546557657    0.58445976969081
O           3.47413652524889    0.31373364329465    1.34211494552074
C           1.77811421859411   -1.11805475432679    0.47491085644244
O           0.80390663535728   -1.16645241326953   -0.54333477487783
H          -2.44078438489879    1.88543589821296    0.70257324499754
H          -1.66112118821419   -2.26857936795459   -0.88845281614816
H           2.71159901833224    2.14756623905802   -0.29597009450861
H           1.69722809580213    1.00661335931556   -1.24801652877262
H           1.34366057983950   -1.34708670266551    1.45843089614485
H           2.49686700235190   -1.90858436349180    0.23749823309736
