# ORCA input file
# SCF done        -29.554847873298          0.000772785538
! B3LYP/G D3BJ Opt RIJCOSX def2-SVP def2/J
* xyz 0 1
   C        0.07443         1.12907         0.10852
   S       -1.11591        -0.09118         0.14296
   C        0.12579        -1.28755        -0.00191
   N       -0.24109        -2.64613        -0.03263
   O        0.64963        -3.46485        -0.14531
   O       -1.42714        -2.90022         0.05722
   C        1.38484        -0.75437        -0.07074
   C        1.36458         0.65717        -0.00653
   C        2.52008         1.53489        -0.05136
   C        3.78114         1.13546        -0.16091
   H       -0.22480         2.15752         0.17515
   H        2.26524        -1.36273        -0.16221
   H        2.28841         2.58971         0.01342
   H        4.05532         0.09690        -0.22635
   H        4.59061         1.84370        -0.18619
*
