15
 SCF done        -29.554847873298          0.000772785538
C           0.07443157482614    1.12906906646682    0.10852489906613
S          -1.11590797374562   -0.09117954663449    0.14296245058416
C           0.12578868608572   -1.28754869687750   -0.00190982344440
N          -0.24109273134127   -2.64612722063436   -0.03262758989252
O           0.64963401104022   -3.46484967924861   -0.14531098511005
O          -1.42713985414967   -2.90022396214791    0.05722051056918
C           1.38484189147194   -0.75437151609354   -0.07073784114111
C           1.36458158880073    0.65716700921736   -0.00652934573365
C           2.52007930213772    1.53489331317393   -0.05136266065987
C           3.78114020664758    1.13546153174606   -0.16091351886417
H          -0.22480410479718    2.15751777313015    0.17515392752452
H           2.26523584488899   -1.36273238486917   -0.16220598901269
H           2.28840673048934    2.58970619637697    0.01341733612259
H           4.05531533924136    0.09690166000300   -0.22634581334587
H           4.59060948840399    1.84369645639129   -0.18618555666223
