15
 SCF done        -28.754079882904          0.000822730981
C           1.25924312960437   -1.29853049497532    0.00860542609288
S           2.53572433294573   -0.14175942632868   -0.03114899730449
C           0.04116861267439   -0.68977109453561    0.00710331699286
C          -1.32271818017394   -1.17601367675966    0.02310569571879
C          -2.24228916728034   -0.21723805698881    0.01580669881102
S          -1.49633936159045    1.44212841273949   -0.01824263501613
N          -1.67969052620017    2.15645939456323   -1.35009874225766
O          -1.79178573870085    2.11200164900069    1.23042127259822
C           0.14817899314808    0.73037707826535   -0.02589142151033
C           1.41832373708615    1.17946333393512   -0.04956838167718
H           1.49028030818471   -2.34483449530177    0.03324672835926
H          -1.53128862061876   -2.23518726391330    0.03759079764688
H          -3.30842332826863   -0.33049090177082    0.02268090163755
H          -2.35149769641185    2.90315301687977   -1.34950595257314
H           1.78199350560157    2.18629252519032   -0.07690470751854
