# ORCA input file
# SCF done        -40.690335080259          0.000549465370
! B3LYP/G D3BJ Opt RIJCOSX def2-SVP def2/J
* xyz 0 1
   N        1.23167        -0.08088        -0.40086
   C        0.29894         0.98852        -0.12823
   C        0.21022         1.36278         1.35418
   C        2.59922         0.07371        -0.19406
   C        3.38441        -1.05433         0.04819
   C        4.75169        -0.95566         0.19102
   C        5.40430         0.27495         0.10654
   C        4.62342         1.42475        -0.12793
   C        3.24521         1.30129        -0.27824
   C        5.22633         2.75513        -0.17988
   C        4.81546         3.75156        -0.95371
   N        6.78340         0.35947         0.15898
   C        7.59441        -0.67757         0.75644
   C        9.03548        -0.20314         0.87425
   H        0.89943        -0.98175        -0.08227
   H       -0.68187         0.66285        -0.48640
   H        0.59109         1.86278        -0.71449
   H       -0.11948         0.50795         1.94235
   H       -0.49531         2.17720         1.49836
   H        1.18665         1.67514         1.71825
   H        2.91070        -2.02367         0.12627
   H        5.32074        -1.85356         0.37302
   H        2.67633         2.20297        -0.43797
   H        6.06317         2.93292         0.48842
   H        4.00730         3.63183        -1.65511
   H        5.28512         4.72033        -0.92832
   H        7.13649         1.29069         0.32059
   H        7.55703        -1.56505         0.11485
   H        7.21586        -0.96288         1.75185
   H        9.41620         0.08427        -0.10292
   H        9.66090        -0.99803         1.27195
   H        9.10459         0.65434         1.54164
*
