17
 SCF done        -28.573790186952          0.000547143075
C          -1.08366331122507    1.41979219635049   -0.06652415539761
C           0.20693191505265    0.81149714105691    0.04942577662419
C           1.42868009930780    1.38852851646917    0.06463821042026
S           2.75015933115526    0.17925660789317    0.37361180807310
F           4.10468298401356   -1.13242902049169    0.39728717900653
C           1.55921041462246   -1.10852779670689    0.23328146680457
C           0.29318758509914   -0.64561804184465    0.12223542873230
C          -0.91120389058181   -1.41313799411616    0.05682403588047
C          -2.10106754258180   -0.78124984190738   -0.05935119192015
C          -2.18918477162730    0.64423311924696   -0.12077745958104
H          -1.14262813113098    2.49670948040933   -0.11555362770003
H           1.62764848150077    2.44372860701595    0.06534159650228
H           3.17376507730373    0.28895013735810   -0.90099949221424
H           1.90836368107584   -2.11648313189473    0.32598139206681
H          -0.84128065447949   -2.48911691231682    0.10296744400134
H          -3.01801237306264   -1.34983855666640   -0.10568922086959
H          -3.16822889444213    1.09114549014465   -0.21077919042919
