# ORCA input file
# SCF done        -28.573790186952          0.000547143075
! B3LYP/G D3BJ Opt RIJCOSX def2-SVP def2/J
* xyz 0 1
   C       -1.08366         1.41979        -0.06652
   C        0.20693         0.81150         0.04943
   C        1.42868         1.38853         0.06464
   S        2.75016         0.17926         0.37361
   F        4.10468        -1.13243         0.39729
   C        1.55921        -1.10853         0.23328
   C        0.29319        -0.64562         0.12224
   C       -0.91120        -1.41314         0.05682
   C       -2.10107        -0.78125        -0.05935
   C       -2.18918         0.64423        -0.12078
   H       -1.14263         2.49671        -0.11555
   H        1.62765         2.44373         0.06534
   H        3.17377         0.28895        -0.90100
   H        1.90836        -2.11648         0.32598
   H       -0.84128        -2.48912         0.10297
   H       -3.01801        -1.34984        -0.10569
   H       -3.16823         1.09115        -0.21078
*
