22
 SCF done        -39.124774665434          0.000695237923
C           1.00508135526853    0.05063695893418    0.22058544892693
C           0.41845454052859   -1.16198190579123    0.20436699984674
F           1.00766374069979   -2.33346127670652    0.45314730719827
C          -0.99658970441046   -1.05302228866017   -0.11914583061512
C          -1.26981684901671    0.25434129728693   -0.26694615988366
C          -0.03392745838111    1.01925079195286   -0.07798358679659
C           0.05004340910925    2.37874115037706   -0.11951993602419
C           1.24999483381397    3.23789150119419    0.01808471574967
C           0.81637420365402    4.50295869950181    0.25759474764469
C          -0.62531560499759    4.49896869471725    0.19330072216781
C          -1.09551858492012    3.26198756032160   -0.07829171896526
F          -1.35700872651481    5.60000188414527    0.37314625538359
C           2.63385707353678    2.87741040643206   -0.18666084251993
C           3.06989566061400    1.96865877932401   -1.05473269819895
H           2.02207793987452    0.27728099746302    0.46554765490803
H          -1.66245771039101   -1.89032656107742   -0.20284176586557
H          -2.21511385993500    0.68864247447450   -0.52362890576764
H           1.41355465408394    5.38059901319135    0.41556632843039
H          -2.12141909186492    2.96453928818912   -0.14950512029176
H           3.34641190420109    3.48179145159516    0.36062960667514
H           2.39463456197580    1.39327968921564   -1.66511741486610
H           4.12152371307143    1.78597139391907   -1.19431580713672
