# ORCA input file
# SCF done        -39.124774665434          0.000695237923
! B3LYP/G D3BJ Opt RIJCOSX def2-SVP def2/J
* xyz 0 1
   C        1.00508         0.05064         0.22059
   C        0.41845        -1.16198         0.20437
   F        1.00766        -2.33346         0.45315
   C       -0.99659        -1.05302        -0.11915
   C       -1.26982         0.25434        -0.26695
   C       -0.03393         1.01925        -0.07798
   C        0.05004         2.37874        -0.11952
   C        1.24999         3.23789         0.01808
   C        0.81637         4.50296         0.25759
   C       -0.62532         4.49897         0.19330
   C       -1.09552         3.26199        -0.07829
   F       -1.35701         5.60000         0.37315
   C        2.63386         2.87741        -0.18666
   C        3.06990         1.96866        -1.05473
   H        2.02208         0.27728         0.46555
   H       -1.66246        -1.89033        -0.20284
   H       -2.21511         0.68864        -0.52363
   H        1.41355         5.38060         0.41557
   H       -2.12142         2.96454        -0.14951
   H        3.34641         3.48179         0.36063
   H        2.39463         1.39328        -1.66512
   H        4.12152         1.78597        -1.19432
*
