24
 SCF done        -38.056784908973          0.000596184990
C          -1.69840190172130    1.04829923590865   -0.22913676158266
S          -2.75146078364315   -0.28134659987161   -0.06926122278830
C          -1.45052336490659   -1.40880518556317    0.08228685650486
C          -0.22567246735997   -0.74420739628232    0.00741570589672
C          -0.37519286780323    0.67703448984771   -0.17255533546008
C           0.78691905169784    1.50770464935050   -0.28207705062576
C           0.63705769967935    2.96661365035785   -0.46398398840890
O          -0.42392140435963    3.53724318254145   -0.31614958895428
C           1.87778930620438    3.74009645424126   -0.85262194580510
C           2.01823771954766    0.90055178357023   -0.19897550992921
C           2.15664207262106   -0.48627149420683   -0.01053239025447
C           1.06566948254943   -1.30149295062643    0.08930003056000
C          -1.67753343428286   -2.81289950005005    0.25120189078821
C          -2.87546896747413   -3.39498884203676    0.29647261595076
H          -2.09821177197143    2.03336009476583   -0.35264566327211
H           2.35604292968696    3.29261506607777   -1.72039815054367
H           2.58475705386628    3.74985196110664   -0.02534500430510
H           1.59390620708952    4.76457475066994   -1.08001616814453
H           2.92019774800533    1.48876590185611   -0.26321982718688
H           3.15050905727505   -0.90371188880489    0.05503789195023
H           1.18651517528076   -2.36444250774990    0.23278799523673
H          -0.78425929631843   -3.41674665731999    0.34323639088084
H          -3.78343519929759   -2.82152018910502    0.20756967319022
H          -2.98179204436606   -4.45707800867697    0.42595955630264
