# ORCA input file
# SCF done        -38.056784908973          0.000596184990
! B3LYP/G D3BJ Opt RIJCOSX def2-SVP def2/J
* xyz 0 1
   C       -1.69840         1.04830        -0.22914
   S       -2.75146        -0.28135        -0.06926
   C       -1.45052        -1.40881         0.08229
   C       -0.22567        -0.74421         0.00742
   C       -0.37519         0.67703        -0.17256
   C        0.78692         1.50770        -0.28208
   C        0.63706         2.96661        -0.46398
   O       -0.42392         3.53724        -0.31615
   C        1.87779         3.74010        -0.85262
   C        2.01824         0.90055        -0.19898
   C        2.15664        -0.48627        -0.01053
   C        1.06567        -1.30149         0.08930
   C       -1.67753        -2.81290         0.25120
   C       -2.87547        -3.39499         0.29647
   H       -2.09821         2.03336        -0.35265
   H        2.35604         3.29262        -1.72040
   H        2.58476         3.74985        -0.02535
   H        1.59391         4.76457        -1.08002
   H        2.92020         1.48877        -0.26322
   H        3.15051        -0.90371         0.05504
   H        1.18652        -2.36444         0.23279
   H       -0.78426        -3.41675         0.34324
   H       -3.78344        -2.82152         0.20757
   H       -2.98179        -4.45708         0.42596
*
