# ORCA input file
# SCF done        -33.457996120501          0.000715064318
! B3LYP/G D3BJ Opt RIJCOSX def2-SVP def2/J
* xyz 0 1
   C       -1.07474        -0.23755        -0.33145
   O       -0.79048        -1.41708        -0.93468
   C        0.28084        -1.89373        -0.31214
   C        0.70709        -1.03957         0.69606
   C       -0.19093         0.04830         0.67531
   C        1.91134        -1.60214         1.37766
   O        2.54888        -1.14153         2.28652
   C        2.12106        -2.88307         0.63843
   C        1.15549        -3.03403        -0.34777
   O        1.31849        -4.16672        -1.02071
   C        2.40145        -4.76976        -0.47328
   C        2.93725        -4.03023         0.54768
   H       -1.92227         0.30267        -0.70314
   H       -0.19302         0.91389         1.30438
   H        2.69150        -5.71277        -0.89148
   H        3.79120        -4.28075         1.14183
*
