# ORCA input file
# SCF done        -30.475004910193          0.000449696811
! B3LYP/G D3BJ Opt RIJCOSX def2-SVP def2/J
* xyz 0 1
   C       -0.87744        -1.45179        -0.00792
   C       -2.05464        -0.75300        -0.01329
   C       -2.08879         0.65626        -0.01318
   C       -0.94682         1.41125        -0.00762
   C        0.27205         0.72352         0.00030
   C        0.30668        -0.70583         0.00012
   N        1.59914        -1.07364         0.01779
   N        2.25006         0.05637         0.02889
   C        3.68522         0.09110         0.01953
   C        4.21181         0.12225        -1.41213
   N        1.54515         1.15352         0.01818
   H       -0.84510        -2.52961        -0.00834
   H       -2.99278        -1.28874        -0.01657
   H       -3.05178         1.14592        -0.01635
   H       -0.96674         2.48937        -0.00777
   H        4.03784        -0.80316         0.53686
   H        3.99577         0.98763         0.55954
   H        3.88511        -0.76389        -1.95081
   H        5.29782         0.14889        -1.40554
   H        3.84146         1.00482        -1.92794
*
