11
 SCF done        -18.076357335762          0.000560881389
C          -1.13675114207339   -0.03632656996281   -0.01310109976894
O          -0.35782826068702    1.07028146849351    0.03397157655432
C           0.91402170755431    0.65336394837344    0.02351270222098
C           0.98305254467113   -0.70323978905357   -0.03079826631827
C          -0.36420862628766   -1.16359848795452   -0.05834736457292
N          -0.77797163416711   -2.47976084565283   -0.20024209108269
H          -2.19814530141880    0.10511568113270   -0.01770414886907
H           1.67906821599244    1.40345363192226    0.05930456376361
H           1.86624054406519   -1.30828250576960   -0.05167924796401
H          -0.11632747655390   -3.15459213200600    0.15393007605269
H          -1.71774057109519   -2.65400439952259    0.12205329998429
