25
 SCF done        -47.474667749327          0.000488694042
C           1.03085686702742    1.51113201588006   -0.21937189565733
C          -0.01316994627851    0.62786783697233   -0.12191960713621
C           0.42533321969600   -0.73155737140888   -0.07720478438721
S          -0.90309481262495   -1.84845277854700    0.04730618117647
C          -2.04075019258236   -0.51448444830724    0.03851379882611
C          -3.46482535026598   -0.85739472702779    0.13041686425376
O          -3.86418291112088   -1.99294844453541    0.21916483335614
O          -4.23945140230589    0.22884025825317    0.11774470873386
C          -5.64868555476378    0.01504839912635    0.19430515507593
C          -6.23481423214285   -0.33863672652152   -1.16506542528460
C          -1.43342823024740    0.70299552781640   -0.05332351303330
F          -2.08079535170052    1.86905510292313   -0.07944131276741
C           1.78829212691880   -0.88568670856806   -0.14117683029318
S           2.53230994030762    0.69003219610233   -0.25688455379878
C           2.53601846628406   -2.10964244548024   -0.12263787659975
C           3.86125925539790   -2.19460372701577   -0.19861102714087
H           0.99739900310019    2.58048086280792   -0.26954659140288
H          -6.05270063519646    0.95875900812435    0.56561574980889
H          -5.84671572888344   -0.78793812110233    0.91230283111072
H          -5.98679380429455    0.43087619377778   -1.89240087310376
H          -7.31520190409927   -0.41764032574012   -1.08424719661575
H          -5.83648298578097   -1.29137292245409   -1.50588741508435
H           1.92213226321761   -2.99743636640891   -0.03998380750784
H           4.47711556272135   -1.31393256855712   -0.28090342305477
H           4.36675633761683   -3.14296972010934   -0.17987398947386
