# ORCA input file
# SCF done        -47.474667749327          0.000488694042
! B3LYP/G D3BJ Opt RIJCOSX def2-SVP def2/J
* xyz 0 1
   C        1.03086         1.51113        -0.21937
   C       -0.01317         0.62787        -0.12192
   C        0.42533        -0.73156        -0.07720
   S       -0.90309        -1.84845         0.04731
   C       -2.04075        -0.51448         0.03851
   C       -3.46483        -0.85739         0.13042
   O       -3.86418        -1.99295         0.21916
   O       -4.23945         0.22884         0.11774
   C       -5.64869         0.01505         0.19431
   C       -6.23481        -0.33864        -1.16507
   C       -1.43343         0.70300        -0.05332
   F       -2.08080         1.86906        -0.07944
   C        1.78829        -0.88569        -0.14118
   S        2.53231         0.69003        -0.25688
   C        2.53602        -2.10964        -0.12264
   C        3.86126        -2.19460        -0.19861
   H        0.99740         2.58048        -0.26955
   H       -6.05270         0.95876         0.56562
   H       -5.84672        -0.78794         0.91230
   H       -5.98679         0.43088        -1.89240
   H       -7.31520        -0.41764        -1.08425
   H       -5.83648        -1.29137        -1.50589
   H        1.92213        -2.99744        -0.03998
   H        4.47712        -1.31393        -0.28090
   H        4.36676        -3.14297        -0.17987
*
