14
 SCF done        -23.159391833640          0.000965583160
C          -0.57377299699420    0.91964044207643    0.05264759740765
O          -1.34172242620243   -0.17629485248654   -0.04358256059943
C          -0.52551887400572   -1.23996083856183    0.01299287724067
C           0.77130845637667   -0.85310804234071    0.13578950078691
C           0.74138614719188    0.56845091414601    0.16852851174484
S           2.09428035731025    1.68605290432588    0.26749346573629
C           3.13170643062705    0.82836941698662    1.40348635821911
C           4.36122521751318    1.21734317201534    1.69473407746225
H          -1.05073106410966    1.87783118261878    0.01719633932844
H          -0.97545933410306   -2.21090802346150   -0.04694963820641
H           1.63442034595480   -1.48345304755936    0.18558768543285
H           2.66301665100616   -0.02934657446506    1.85752339454526
H           4.80390238099439    2.08286023612554    1.23412564961271
H           4.95869870844068    0.68306311058034    2.41172674128901
