19
 SCF done        -30.264766255096          0.000554445301
C          -2.12075105337702    0.68002175794636   -0.00879512647026
C          -2.14926947771907   -0.62791775514250    0.26431567139478
C          -0.90802890738925   -1.47591916795244    0.36119283024886
C           0.32671087698517   -0.69540362097210    0.09394549900712
C           0.33492276935948    0.69236025640971   -0.19291104108232
C          -0.90212425334081    1.51076906339299   -0.25536286575886
N           1.54533536300322    1.16214162022903   -0.39457727167416
S           2.61645104670323   -0.05174053625364   -0.23877409104815
N           1.53345816253382   -1.21694457552758    0.09700820587051
C          -3.42800852289039   -1.28914089155957    0.48616708314135
C          -3.60759897716587   -2.57145971295951    0.78264153271471
H          -3.05318082600856    1.22679216100381   -0.06176904690446
H          -0.96931831502082   -2.30579775629272   -0.35042168917991
H          -0.84186910779511   -1.92193380933954    1.35922605626773
H          -0.97261173862668    1.99872163034240   -1.23425348274819
H          -0.84631133095077    2.31913521114503    0.48328598128369
H          -4.29286201845854   -0.64408766629415    0.39427777755772
H          -2.79435633261948   -3.26847024498517    0.88958909131493
H          -4.59454735722255   -2.97506596319044    0.93009488606493
