26
 SCF done        -39.866581960179          0.000962494204
C           1.24871630968792    0.27405155970876   -0.16957401323528
C           0.89054922666336   -1.01788374099289   -0.09230106740060
C          -0.56162053407798   -1.07852245962452    0.07723748537092
O          -1.17333383248191   -2.27291866271847    0.17406945834495
C          -2.57299084171264   -2.25200444880314    0.32504391158590
C          -1.05929773149290    0.18545512194967    0.10375653093111
C           0.04511453071736    1.09593578490674   -0.05114521011852
C          -0.00000321180806    2.45990158726296   -0.09396300007662
C           1.10425320832253    3.36635214751243   -0.27221146966901
C           0.60792431467723    4.63094727788008   -0.26761257918851
O           1.22000748458120    5.82132174100555   -0.40495771699387
C           2.61462488818226    5.79116540318079   -0.59619999582503
C          -0.84213461042779    4.57521263632936   -0.07979592676997
C          -1.20126641552482    3.28515323556410    0.02181430428482
H           2.23935334109649    0.66574316953657   -0.29437909710636
H           1.51362326301766   -1.89056092768147   -0.14084236750663
H          -2.89241341149117   -3.29170419310560    0.37256578330509
H          -3.05278953768816   -1.75829406799061   -0.52596975691930
H          -2.86152158963648   -1.73600836384161    1.24636265969263
H          -2.08233001495029    0.48579413225243    0.21430099098308
H           2.12553909780188    3.06257249041845   -0.38872323433237
H           2.93283443587539    6.82675583867416   -0.70372143455538
H           2.87525812327612    5.23054578851815   -1.49954685971462
H           3.11971470119506    5.33842664503491    0.26302956636622
H          -1.46374458664617    5.44935476313387   -0.03890674330827
H          -2.19092660715609    2.89721754188944    0.16545978185566
