# ORCA input file
# SCF done        -39.866581960179          0.000962494204
! B3LYP/G D3BJ Opt RIJCOSX def2-SVP def2/J
* xyz 0 1
   C        1.24872         0.27405        -0.16957
   C        0.89055        -1.01788        -0.09230
   C       -0.56162        -1.07852         0.07724
   O       -1.17333        -2.27292         0.17407
   C       -2.57299        -2.25200         0.32504
   C       -1.05930         0.18546         0.10376
   C        0.04511         1.09594        -0.05115
   C       -0.00000         2.45990        -0.09396
   C        1.10425         3.36635        -0.27221
   C        0.60792         4.63095        -0.26761
   O        1.22001         5.82132        -0.40496
   C        2.61462         5.79117        -0.59620
   C       -0.84213         4.57521        -0.07980
   C       -1.20127         3.28515         0.02181
   H        2.23935         0.66574        -0.29438
   H        1.51362        -1.89056        -0.14084
   H       -2.89241        -3.29170         0.37257
   H       -3.05279        -1.75829        -0.52597
   H       -2.86152        -1.73601         1.24636
   H       -2.08233         0.48579         0.21430
   H        2.12554         3.06257        -0.38872
   H        2.93283         6.82676        -0.70372
   H        2.87526         5.23055        -1.49955
   H        3.11971         5.33843         0.26303
   H       -1.46374         5.44935        -0.03891
   H       -2.19093         2.89722         0.16546
*
