10
 SCF done        -15.912895714274          0.000080437195
C           1.17413813406714    0.35486698491444    0.00214814256260
C           0.73946330826008   -0.91478342827414   -0.00073122602457
C          -0.73147234520675   -0.91616508109707   -0.00090076051310
C          -1.16853104058292    0.35266571430266    0.00186121113019
C           0.00198652764965    1.22612061193448    0.00386453819493
S           0.00044830361381    2.85568238342213    0.00749727313171
H           2.18263206710112    0.71992312500020    0.00308244493834
H           1.33485360817963   -1.80942187836404   -0.00266725936226
H          -1.32518370194311   -1.81191909107259   -0.00298432608968
H          -2.17770486113865    0.71584065923393    0.00253996203184
