# ORCA input file
# SCF done        -15.912895714274          0.000080437195
! B3LYP/G D3BJ Opt RIJCOSX def2-SVP def2/J
* xyz 0 1
   C        1.17414         0.35487         0.00215
   C        0.73946        -0.91478        -0.00073
   C       -0.73147        -0.91617        -0.00090
   C       -1.16853         0.35267         0.00186
   C        0.00199         1.22612         0.00386
   S        0.00045         2.85568         0.00750
   H        2.18263         0.71992         0.00308
   H        1.33485        -1.80942        -0.00267
   H       -1.32518        -1.81192        -0.00298
   H       -2.17770         0.71584         0.00254
*
