# ORCA input file
# SCF done        -45.977780869417          0.000529875571
! B3LYP/G D3BJ Opt RIJCOSX def2-SVP def2/J
* xyz 0 1
   N        1.88038         0.48066         1.10612
   C        0.55493         0.88718         0.70358
   C        0.00991         0.10057        -0.49145
   C        3.00248         0.70696         0.32947
   C        4.15041        -0.05807         0.55508
   C        5.31622         0.19376        -0.13313
   C        5.39124         1.20268        -1.09271
   C        4.23240         1.95388        -1.36299
   C        3.07046         1.70312        -0.63953
   C        4.20498         2.93142        -2.45067
   C        3.45251         4.02323        -2.48681
   N        6.59217         1.45193        -1.76793
   C        7.42470         0.34276        -2.17884
   C        8.67064         0.16500        -1.30958
   C        7.02656         2.74287        -1.96114
   C        8.07283         3.14539        -2.67931
   H        1.90365        -0.40904         1.58466
   H        0.57409         1.95402         0.46958
   H       -0.10289         0.74945         1.56637
   H        0.66345         0.22465        -1.35197
   H       -0.98458         0.45242        -0.75266
   H       -0.04785        -0.95976        -0.25303
   H        4.12355        -0.85100         1.28988
   H        6.18713        -0.40488         0.08462
   H        2.19458         2.28370        -0.87878
   H        4.85650         2.70897        -3.28716
   H        2.81871         4.31325        -1.66528
   H        3.45966         4.68434        -3.33645
   H        7.73166         0.50794        -3.21814
   H        6.81691        -0.56504        -2.15325
   H        9.27310         1.06904        -1.32839
   H        9.26772        -0.66358        -1.68259
   H        8.39824        -0.03821        -0.27693
   H        6.42731         3.47608        -1.43749
   H        8.71248         2.48274        -3.23282
   H        8.31137         4.19132        -2.73455
*
