36
 SCF done        -45.977780869417          0.000529875571
N           1.88037767724179    0.48065758034800    1.10611938337134
C           0.55493195059514    0.88717744081871    0.70358083942861
C           0.00991174074127    0.10056611213322   -0.49145191561895
C           3.00247824061017    0.70695981508545    0.32946819519220
C           4.15041069795103   -0.05807065570160    0.55508251964242
C           5.31621974678663    0.19376257263214   -0.13312523345329
C           5.39123756270464    1.20267637350624   -1.09271228233185
C           4.23239628879230    1.95387993421219   -1.36298821866406
C           3.07045655567626    1.70311933086297   -0.63953210085957
C           4.20497715624116    2.93141666386275   -2.45067042966442
C           3.45251042203492    4.02322924413532   -2.48680565843734
N           6.59216656901765    1.45192511928383   -1.76793017053137
C           7.42469788506266    0.34276297966483   -2.17884291225145
C           8.67063593553883    0.16500268882024   -1.30957897475818
C           7.02656426147992    2.74287469601995   -1.96113529083677
C           8.07282574639570    3.14539345335270   -2.67930659545585
H           1.90364897495587   -0.40903706545505    1.58465768959053
H           0.57408555511599    1.95401797423949    0.46958087889286
H          -0.10289134428078    0.74944608145920    1.56637061127258
H           0.66345389236697    0.22464887746522   -1.35196673241427
H          -0.98458001445137    0.45241513349987   -0.75266017894074
H          -0.04784837582470   -0.95976144651363   -0.25303168901884
H           4.12355166840862   -0.85099953852166    1.28988266828216
H           6.18712934046029   -0.40488249993333    0.08461522385363
H           2.19457696738683    2.28369729652360   -0.87878384690045
H           4.85649582068848    2.70896931210841   -3.28715505935888
H           2.81871216331473    4.31324571735257   -1.66528114410668
H           3.45966216875351    4.68434350273061   -3.33644855139405
H           7.73165888536032    0.50794169001409   -3.21813678452603
H           6.81690877946560   -0.56503615575027   -2.15325045904946
H           9.27310227142216    1.06903908412100   -1.32839436387470
H           9.26771720052617   -0.66358230390681   -1.68258901463111
H           8.39824264731870   -0.03820830047997   -0.27693376669834
H           6.42731254461972    3.47607549314592   -1.43748937742719
H           8.71248114481804    2.48273870389880   -3.23281748072439
H           8.31137127270544    4.19131509496574   -2.73454977759538
