24
 SCF done        -39.708250253285          0.000573058850
C           0.98996193564438    0.39594798911781    0.37886599592238
C           0.58830755750498   -0.87993025416211    0.26594263655462
C          -0.83729394407267   -0.88374104596109   -0.09074277258684
C          -1.58048848667116   -2.04578854271366   -0.33270389511979
N          -2.17907494400473   -3.00706438165914   -0.52178690569247
C          -1.27894546042467    0.39979620955348   -0.14790682420080
C          -0.15731138243070    1.27165588859590    0.15028296581612
C          -0.12638354375057    2.63573495263056    0.17308176704624
C          -1.24243870384885    3.59522828411183    0.03181144139138
C          -0.69925535419280    4.81318889114274   -0.21370422847327
C           0.75337727795441    4.70293293955080   -0.16560388096180
C           1.09086904530645    3.41360686756304    0.11691417955331
C           1.62999252420252    5.77632162295504   -0.37388584743828
N           2.33780311194988    6.66431780136705   -0.54135419075885
C          -2.65317707448348    3.35270413935584    0.23760976143621
C          -3.16076486189785    2.48653745103328    1.10968981150006
H           1.97129822723755    0.73801573055968    0.64340953503499
H           1.17186235112064   -1.77249268570559    0.39324980919310
H          -2.26123939811764    0.72707713151669   -0.42569646146661
H          -1.22361103581815    5.73690376157499   -0.37397208743979
H           2.08543080847337    3.01812510795019    0.18615334610559
H          -3.31361319331742    4.00910620511732   -0.31568155150689
H          -2.53635964102000    1.86545257697976    1.73053360712843
H          -4.22341581534312    2.38825335952551    1.24928378896320
