# ORCA input file
# SCF done        -27.013693715714          0.000747736632
! B3LYP/G D3BJ Opt RIJCOSX def2-SVP def2/J
* xyz 0 1
   C       -1.27091         1.20172         0.03047
   N       -2.08342         0.10693        -0.09233
   C       -1.36579        -1.04806        -0.16285
   C       -0.03433        -0.70725        -0.08586
   C        0.01125         0.71725         0.03657
   N        1.32208         1.10173         0.11959
   C        2.09477        -0.02956         0.05036
   C        1.32920        -1.16312        -0.07530
   C        1.83789        -2.50560        -0.17626
   C        1.09496        -3.60070        -0.30969
   H       -1.66844         2.19360         0.09892
   H       -3.08816         0.15423        -0.12586
   H       -1.85868        -1.99412        -0.25879
   H        1.66814         2.04065         0.20567
   H        3.16568         0.04543         0.09684
   H        2.91771        -2.58820        -0.13651
   H        0.02152        -3.55018        -0.35256
   H        1.53639        -4.57995        -0.38139
*
