# ORCA input file
# SCF done        -29.984294829221          0.000787196035
! B3LYP/G D3BJ Opt RIJCOSX def2-SVP def2/J
* xyz 0 1
   C       -0.91397         1.49572         0.04719
   C        0.28480         0.75879         0.07798
   N        1.54944         1.12751         0.17432
   O        2.26434         0.00507         0.15511
   N        1.51895        -1.09179         0.04860
   C        0.26605        -0.68207        -0.00352
   C       -0.95225        -1.40465        -0.11886
   C       -2.09039        -0.63282        -0.14511
   C       -2.06944         0.77859        -0.06415
   C       -0.90013        -2.85391        -0.19322
   C       -1.93962        -3.66784        -0.34989
   H       -0.89420         2.57045         0.11059
   H       -3.05288        -1.11328        -0.22900
   H       -3.01586         1.29854        -0.09236
   H        0.10018        -3.25959        -0.11258
   H       -2.95232        -3.31217        -0.44243
   H       -1.80763        -4.73490        -0.39371
*
