20
 SCF done        -25.637083435212          0.000617897497
C          -1.08238718715477    0.06715127469102    0.00616516802445
N          -0.22537301449481    1.11740517332586   -0.03019839336270
C          -0.63596787600015    2.49198523471928    0.07807432835724
C          -0.51276756680552    3.00499501029969    1.51331240052820
C           1.06114104785062    0.64098187331748   -0.08840075334599
C           0.98817139629795   -0.74166076785683   -0.10511929907277
C          -0.36423097294912   -1.09942722003434   -0.04661707567585
C           2.21740910163193    1.49677584022294   -0.13870412358067
C           3.47986752580754    1.07569903311749   -0.12337197451988
H          -2.14311713741373    0.22212448660003    0.05832945638357
H          -1.67791356211296    2.55860123287356   -0.24824406816696
H          -0.03307076390759    3.10955167885304   -0.59451783397149
H          -1.13262500195168    2.40799603067566    2.17844356768724
H          -0.83473235498442    4.04159555456595    1.57015918489013
H           0.51798542552266    2.93728905029468    1.85299205339800
H           1.81929027443848   -1.41594620891835   -0.16099831902687
H          -0.76481851896992   -2.09401432949862   -0.04477951884013
H           2.02543963840712    2.56091216744223   -0.19460939169223
H           3.73156158447618    0.03165273923945   -0.06310549680211
H           4.30326796231220    1.76673214606980   -0.17101991121110
