# ORCA input file
# SCF done        -31.291044147655          0.000807894679
! B3LYP/G D3BJ Opt RIJCOSX def2-SVP def2/J
* xyz 0 1
   C       -2.37590         0.70777        -0.02582
   C       -2.39554        -0.70729         0.06103
   C       -1.19806        -1.38863         0.09375
   C        0.02159        -0.69343         0.05085
   C        0.02388         0.72834        -0.02922
   C       -1.20849         1.41152        -0.06693
   N        1.18315         1.41629        -0.07232
   C        2.28897         0.72246        -0.03745
   C        2.28900        -0.68605         0.04196
   N        1.18542        -1.38095         0.08483
   C       -3.69117        -1.37540         0.10585
   C       -3.90556        -2.65623         0.38246
   H       -3.31997         1.23374        -0.05524
   H       -1.15599        -2.46481         0.14306
   H       -1.19370         2.48852        -0.13096
   H        3.21475         1.28141        -0.07179
   H        3.21581        -1.24410         0.07095
   H       -4.53915        -0.73084        -0.09456
   H       -3.10778        -3.34335         0.60960
   H       -4.90113        -3.06544         0.39827
*
