# ORCA input file
# SCF done        -32.790427193301          0.000924697240
! B3LYP/G D3BJ Opt RIJCOSX def2-SVP def2/J
* xyz 0 1
   C        0.95457         0.05076        -0.23884
   C        1.67625        -0.64388         0.62243
   C        2.80123         0.17803         1.17985
   C        2.85561         1.41801         0.26104
   C        1.46733         1.44913        -0.40990
   C        3.21879         2.60230         1.17253
   C        2.68624         2.20984         2.56698
   C        1.42399         3.01930         2.69149
   C        1.33776         3.94386         1.75010
   C        2.52436         3.92936         0.83045
   C        2.49333         0.71720         2.55797
   C        2.11012        -0.00290         3.59657
   H        0.07437        -0.29125        -0.75635
   H        1.49866        -1.65566         0.94265
   H        3.74519        -0.37515         1.20418
   H        3.61383         1.29144        -0.51583
   H        1.52161         1.74133        -1.45994
   H        0.78969         2.13861         0.09897
   H        4.30505         2.71511         1.18154
   H        3.37148         2.49109         3.37554
   H        0.71587         2.83407         3.47981
   H        0.54333         4.66214         1.63365
   H        3.17688         4.77877         1.05465
   H        2.24587         3.99972        -0.22143
   H        1.90908         0.44702         4.55504
   H        1.97989        -1.06932         3.53386
*
