# ORCA input file
# SCF done        -28.963678550368          0.000821981008
! B3LYP/G D3BJ Opt RIJCOSX def2-SVP def2/J
* xyz 0 1
   C       -1.07234         0.00933         0.11078
   O       -0.19110         1.00974         0.04898
   C        1.04524         0.48431        -0.08917
   C        0.95608        -0.89831        -0.11681
   C       -0.44035        -1.20241         0.01563
   C       -1.02213        -2.48078         0.04350
   N       -1.48567        -3.52757         0.06752
   C        1.98705        -1.83816        -0.24568
   N        2.81357        -2.62585        -0.35094
   C        2.16305         1.38785        -0.17388
   C        3.43235         1.01881        -0.31656
   H       -2.11045         0.25422         0.22102
   H        1.88705         2.43197        -0.10984
   H        3.72439        -0.01490        -0.38414
   H        4.21848         1.75053        -0.37053
*
