22
 SCF done        -31.854843225137          0.000782576464
C          -1.57143379244007   -1.15695055307281    0.16537455546650
S          -2.72276971211827    0.10284655710864    0.22824669922600
C          -1.51252165437913    1.30170145247905    0.13375165560624
C          -0.25098047535376    0.75813857164239    0.05609477634262
C          -0.28446152453427   -0.68277261538285    0.07002354808666
C           0.93708077547016   -1.42617838302231    0.00721689897144
C           0.90437359276256   -2.88161783115817    0.00440687926310
C           1.89709018515262   -3.67652248926439    0.38615221120481
C           2.10392808966724   -0.71062676470580   -0.06981285264926
C           2.12907451525093    0.69889683593857   -0.08542501497671
C           0.99138185780177    1.44950006780120   -0.02633769540046
C           1.01265932503596    2.94495474874830   -0.04781331206283
H          -1.91388158394175   -2.17089966188236    0.20890627428742
H          -1.79354551346747    2.33510633155670    0.14542981592826
H          -0.02408165033613   -3.32484705165528   -0.33078111395488
H           2.83101690586147   -3.29282618858753    0.75995053680582
H           1.80468021024292   -4.74844939538012    0.35053453596949
H           3.04406047219322   -1.23532597680729   -0.14520059382844
H           3.08869188386944    1.19155506089019   -0.15431186336629
H           2.03176149372367    3.31382596579327   -0.13052808365129
H           0.56964501142054    3.34397023262558    0.86448856621913
H           0.43459158811838    3.32153108633502   -0.89119642348732
