# ORCA input file
# SCF done        -44.185525331477          0.000363810742
! B3LYP/G D3BJ Opt RIJCOSX def2-SVP def2/J
* xyz 0 1
   C        0.32603        -1.19000         3.50064
   S        1.22472         0.18084         4.00602
   C        2.25865         0.06582         2.65419
   C        1.92882        -0.98579         1.83636
   C        0.79483        -1.72554         2.32517
   C        0.26521        -2.86272         1.64889
   S        0.69640        -3.21870         0.05995
   O       -0.34365        -2.13054        -0.89655
   C       -0.41901        -2.24900        -2.28217
   C        2.23177        -2.35883        -0.14880
   C        2.65183        -1.38322         0.67967
   O        2.99975        -2.71245        -1.21969
   C        2.80971        -3.99273        -1.77560
   C       -0.68872        -3.74848         2.26779
   C       -1.42188        -4.67049         1.64573
   H       -0.50962        -1.50444         4.09086
   H        3.05452         0.77133         2.52395
   H       -1.23017        -1.59758        -2.61211
   H       -0.64781        -3.27692        -2.59013
   H        0.51151        -1.92547        -2.76547
   H        3.59123        -0.89665         0.46007
   H        3.60073        -4.11099        -2.51432
   H        1.83754        -4.08210        -2.27108
   H        2.89704        -4.77506        -1.01467
   H       -0.78098        -3.63606         3.33959
   H       -1.38329        -4.79904         0.57682
   H       -2.08594        -5.32055         2.18602
*
