# ORCA input file
# SCF done        -27.740651281874          0.000834632085
! B3LYP/G D3BJ Opt RIJCOSX def2-SVP def2/J
* xyz 0 1
   C       -1.31108         1.34533        -0.15710
   S       -2.52737         0.12923        -0.25544
   C       -1.36613        -1.15056         0.01829
   C       -0.11426        -0.61647         0.17342
   C       -0.09084         0.80240         0.07633
   S        1.45340         1.59935         0.31087
   C        2.41252         0.07025         0.05493
   S        1.41849        -1.40026         0.48738
   C       -1.81958        -2.51363         0.05518
   C       -1.06952        -3.56424         0.37622
   H       -1.56714         2.37873        -0.26655
   H        3.29491         0.09604         0.68938
   H        2.70248         0.00269        -0.99410
   H       -2.86341        -2.64397        -0.19833
   H       -0.03286        -3.46580         0.64969
   H       -1.47661        -4.55978         0.37429
*
