# ORCA input file
# SCF done        -42.275909786323          0.000497671549
! B3LYP/G D3BJ Opt RIJCOSX def2-SVP def2/J
* xyz 0 1
   C        1.02035        -0.21319        -1.05652
   C        0.34847         0.98560        -0.90833
   C       -0.92570         1.02339        -0.35935
   C       -1.62092         2.34604        -0.18667
   C       -1.29401         2.95841         1.17660
   C       -1.52982        -0.16737         0.05277
   C       -0.85840        -1.38260        -0.10514
   C        0.41485        -1.38983        -0.65758
   C       -1.47877        -2.67679         0.34507
   C       -1.11951        -2.97284         1.80234
   C       -2.87262        -0.14022         0.67063
   C       -4.02990        -0.24810         0.00718
   C       -5.34447        -0.21008         0.72971
   C       -4.03870        -0.40438        -1.44019
   C       -5.12119        -0.52028        -2.20133
   H        2.01178        -0.23076        -1.48504
   H        0.81416         1.90800        -1.22586
   H       -2.70076         2.21460        -0.27416
   H       -1.29560         3.03147        -0.97237
   H       -1.62407         2.30108         1.97736
   H       -1.79110         3.91922         1.29087
   H       -0.22109         3.10765         1.27717
   H        0.93243        -2.33111        -0.77853
   H       -1.11406        -3.49137        -0.28452
   H       -2.56410        -2.62673         0.24344
   H       -0.03948        -3.02160         1.92349
   H       -1.54775        -3.92287         2.11413
   H       -1.50153        -2.19091         2.45427
   H       -2.88516        -0.02326         1.74839
   H       -5.19334        -0.09814         1.80059
   H       -5.90136        -1.12902         0.55158
   H       -5.94794         0.62451         0.37483
   H       -3.05917        -0.42237        -1.90131
   H       -6.12040        -0.50838        -1.80063
   H       -5.04318        -0.63329        -3.26936
*
