35
 SCF done        -42.275909786323          0.000497671549
C           1.02034642972103   -0.21318781694564   -1.05652124925948
C           0.34846785441139    0.98560146925774   -0.90833088177171
C          -0.92570014763629    1.02338725047962   -0.35934958630002
C          -1.62091574716100    2.34604478274726   -0.18666567837081
C          -1.29401146581199    2.95841298558259    1.17660116280284
C          -1.52982044963267   -0.16737156901190    0.05276871488244
C          -0.85839795998128   -1.38260225603029   -0.10513816430739
C           0.41485418239372   -1.38983484752869   -0.65757870416284
C          -1.47877494422904   -2.67678580775051    0.34506616305286
C          -1.11951467051839   -2.97284469182189    1.80233728371015
C          -2.87262009922456   -0.14022471977810    0.67062569748623
C          -4.02989519871754   -0.24809606364847    0.00718159158854
C          -5.34447107689187   -0.21007554042117    0.72970584238845
C          -4.03870295839367   -0.40437862966686   -1.44019274680850
C          -5.12118507253555   -0.52027810350899   -2.20133031804591
H           2.01178150458024   -0.23075960745786   -1.48504163421699
H           0.81416468929959    1.90800270150261   -1.22585951476284
H          -2.70075993258012    2.21460277239742   -0.27415803427723
H          -1.29560074974933    3.03146832228306   -0.97236658224409
H          -1.62406882656766    2.30108278725244    1.97736333337745
H          -1.79109586834654    3.91922410059224    1.29086616182797
H          -0.22109046335755    3.10765313382513    1.27716591565555
H           0.93242792245235   -2.33111113998871   -0.77852878898342
H          -1.11406013226362   -3.49136930715454   -0.28451810721565
H          -2.56410281956369   -2.62672754568660    0.24343989130417
H          -0.03948148041531   -3.02159756224015    1.92348801676655
H          -1.54775419545549   -3.92287161063724    2.11413144770452
H          -1.50152709927811   -2.19091230098813    2.45427204091182
H          -2.88515786420244   -0.02326220711974    1.74839198715715
H          -5.19333798782965   -0.09814493354248    1.80059261231134
H          -5.90135508175443   -1.12901905886168    0.55157600971224
H          -5.94794213473223    0.62450923188514    0.37483367262658
H          -3.05917461602485   -0.42236970379629   -1.90130722575104
H          -6.12040328514299   -0.50838171214414   -1.80062530109350
H          -5.04318025486015   -0.63329280207524   -3.26935502769562
