21
 SCF done        -26.488246033517          0.000478731712
C          -0.12518986694691    1.42506255602892   -0.24795807733567
S          -1.32229544557308    0.20540993348554   -0.45599231983831
C          -0.13044367556700   -1.04503987427294   -0.27644458113203
C          -0.52668606142724   -2.48084641990685   -0.32899155433683
C          -1.44651570859892   -2.85112403804452    0.83509968230652
C           1.10062784774997   -0.51112139530597   -0.07225200311828
C           1.11529198062410    0.90964444561978   -0.05309831842880
C           2.35915320583005    1.72455000354577    0.11671690638578
C           3.11550868436173    1.84562830548838   -1.20723245490260
H          -0.41894433441022    2.45566942170431   -0.27966878577953
H           0.37671979041176   -3.09324491172699   -0.29650291494675
H          -1.04270604159482   -2.68568958915116   -1.27084128403150
H          -0.95283258318040   -2.65513526641839    1.78437167173825
H          -1.70907953393070   -3.90524121053239    0.78997359959676
H          -2.35965471371947   -2.26210912693339    0.79340616291277
H           1.98545917726150   -1.10813978900302    0.06563612192004
H           3.00364131118920    1.24901587463841    0.85941344607983
H           2.09703035401275    2.72089301478870    0.47785070932389
H           3.38429683696616    0.86090597142271   -1.58275402128566
H           4.02494831787200    2.42690832414464   -1.07345471813310
H           2.49437045866977    2.33802377042876   -1.95204726699477
