# ORCA input file
# SCF done        -29.282718313265          0.000311308883
! B3LYP/G D3BJ Opt RIJCOSX def2-SVP def2/J
* xyz 0 1
   C       -1.24363         1.30099        -0.00261
   C       -0.01422         0.73659        -0.00210
   C       -0.02285        -0.70785        -0.00198
   C       -1.33839        -1.30158        -0.00255
   O       -1.70986        -2.43302        -0.00255
   S       -2.51428         0.13237        -0.00314
   C        1.27325        -1.10708        -0.00130
   O        2.11600        -0.06755        -0.00083
   C        1.38490         1.14015        -0.00170
   O        1.92578         2.20370        -0.00139
   H       -1.48754         2.34677        -0.00289
   H        1.71130        -2.08936        -0.00089
*
