# ORCA input file
# SCF done        -26.118506680660          0.000369390752
! B3LYP/G D3BJ Opt RIJCOSX def2-SVP def2/J
* xyz 0 1
   C       -0.23614         1.03773         0.01295
   O       -1.01059        -0.04145        -0.00422
   C       -0.20007        -1.13478        -0.03167
   C        1.10960        -0.73483        -0.03205
   C        1.09541         0.68888        -0.00232
   C        2.23641         1.58899         0.00956
   O        3.39271         1.25354        -0.00118
   C       -0.76859        -2.46008        -0.05490
   C       -2.07295        -2.71442        -0.04811
   H       -0.71792         1.99626         0.03575
   H        1.98197        -1.35403        -0.05030
   H        1.94695         2.65955         0.03086
   H       -0.03986        -3.25750        -0.07995
   H       -2.79873        -1.91943        -0.02554
   H       -2.45140        -3.72075        -0.06847
*
