22
 SCF done        -40.084337342149          0.000827364227
C          -1.42828577656731    0.88605685312744   -0.06449650526746
S          -2.41003031189621   -0.51789636687564   -0.10677776943759
C          -1.03711506543758   -1.59696304818063   -0.05495121158634
C           0.11335761463232   -0.85018604007720   -0.00766971221547
C          -0.09548795452127    0.56685791291453   -0.01233640680004
C           1.13098894555634    1.28136389879850    0.03853654603647
C           2.20538570988187    0.44847659558105    0.07932824408496
C           3.62447074397371    0.80006170055027    0.13738030315985
O           4.52727819117899    0.00071847207742    0.17125267214638
O           3.80594505927581    2.13240781957003    0.14819481640382
C           5.15717740938503    2.56449211944011    0.20421831568567
S           1.80052391132728   -1.25965511848151    0.05876617729729
C          -1.16247013989058   -3.02548908574445   -0.06243597485076
C          -2.31383308982215   -3.69043554000368   -0.10754017885319
H          -1.88379884502214    1.85534613592577   -0.08014709924579
H           1.21359615681189    2.35231747718598    0.04474484582542
H           5.12829343857049    3.65052349551197    0.17903776349116
H           5.71665502388667    2.17372995352180   -0.64827674783867
H           5.63026833005172    2.21344484829604    1.12378656545638
H          -0.21608724809183   -3.55039477204371   -0.02834703979296
H          -3.25920682098041   -3.17415247619004   -0.14411798847840
H          -2.34466528230267   -4.76494483490404   -0.11310961522070
