18
 SCF done        -23.706875649634          0.000700663890
C          -1.37296351186462    0.77322760952168   -0.43382735404806
C          -1.76252765703546   -0.52963846702549   -0.04769447238540
C          -0.54435485160141   -1.39878478421873    0.24207338138433
C           0.55020388876823   -0.42914769668640   -0.02583605935559
C          -0.00763981577699    0.82741187924405   -0.41920419227198
C           1.39297767787667    1.40707384721692   -0.56053558281633
C           1.83268072525395    0.00721294253133   -0.12715466188635
C          -3.09702013498466   -0.97197800726146    0.06033201692627
C          -3.48634579911007   -2.20744463681306    0.43496301344835
H          -2.06939071870553    1.55393651729529   -0.68596086151188
H          -0.51046340685694   -2.26843158979357   -0.41748852867549
H          -0.54805477519606   -1.75935417007098    1.27275077482286
H           1.63119046352258    2.21321260869368    0.13286257306791
H           1.67317069697943    1.69968681385276   -1.57205473294727
H           2.80356483044714   -0.42328978250864    0.02638832615076
H          -3.85796818854139   -0.23900836187109   -0.18066420842919
H          -2.77723431800337   -2.97556776764855    0.68935571983909
H          -4.52675510517152   -2.47183695445776    0.49729484868796
