# ORCA input file
# SCF done        -23.706875649634          0.000700663890
! B3LYP/G D3BJ Opt RIJCOSX def2-SVP def2/J
* xyz 0 2
   C       -1.37296         0.77323        -0.43383
   C       -1.76253        -0.52964        -0.04769
   C       -0.54435        -1.39878         0.24207
   C        0.55020        -0.42915        -0.02584
   C       -0.00764         0.82741        -0.41920
   C        1.39298         1.40707        -0.56054
   C        1.83268         0.00721        -0.12715
   C       -3.09702        -0.97198         0.06033
   C       -3.48635        -2.20744         0.43496
   H       -2.06939         1.55394        -0.68596
   H       -0.51046        -2.26843        -0.41749
   H       -0.54805        -1.75935         1.27275
   H        1.63119         2.21321         0.13286
   H        1.67317         1.69969        -1.57205
   H        2.80356        -0.42329         0.02639
   H       -3.85797        -0.23901        -0.18066
   H       -2.77723        -2.97557         0.68936
   H       -4.52676        -2.47184         0.49729
*
