22
 SCF done        -36.241740581234          0.000926914897
C           2.89192001986119   -1.24604254546459    0.01044508546130
S           3.10811028775171    0.46742145586795   -0.07188091989130
C           1.38265573611253    0.70824176458680   -0.07082668983029
C           0.70302658961661   -0.51937665178367   -0.00830463499884
C           1.59491953534137   -1.62512570116413    0.03756409981134
C          -0.70427073397244   -0.48722956324856    0.00384075763251
C          -1.34432117384035    0.75979869634175   -0.04380670525667
S          -3.07480641992054    0.56744182389948   -0.01846682697161
C          -2.91306950844209   -1.15060995745440    0.05691607929738
C          -1.62912758806732   -1.56758571135870    0.06175178064614
C          -0.65481101899978    1.98699888117187   -0.10790926106509
C           0.73120304151501    1.93486029544770   -0.11948418386435
C          -1.41007283568253    3.22948397903388   -0.15069308402262
C          -0.91853960255868    4.44863821626782   -0.34229350479730
H           3.76291052340380   -1.87148827068491    0.03402406843327
H           1.27442187273427   -2.64997875120635    0.08866073487694
H          -3.80354802079665   -1.74735832622972    0.09267000202584
H          -1.33583188015757   -2.60096150820837    0.10419558091704
H           1.31363538810109    2.84058691290666   -0.15799399662333
H          -2.47850254593281    3.10564320268159   -0.01631136509203
H           0.13009348671031    4.63917517903777   -0.49673119061718
H          -1.56158515277719    5.31125657956012   -0.35689582607123
