# ORCA input file
# SCF done        -36.241740581234          0.000926914897
! B3LYP/G D3BJ Opt RIJCOSX def2-SVP def2/J
* xyz 0 1
   C        2.89192        -1.24604         0.01045
   S        3.10811         0.46742        -0.07188
   C        1.38266         0.70824        -0.07083
   C        0.70303        -0.51938        -0.00830
   C        1.59492        -1.62513         0.03756
   C       -0.70427        -0.48723         0.00384
   C       -1.34432         0.75980        -0.04381
   S       -3.07481         0.56744        -0.01847
   C       -2.91307        -1.15061         0.05692
   C       -1.62913        -1.56759         0.06175
   C       -0.65481         1.98700        -0.10791
   C        0.73120         1.93486        -0.11948
   C       -1.41007         3.22948        -0.15069
   C       -0.91854         4.44864        -0.34229
   H        3.76291        -1.87149         0.03402
   H        1.27442        -2.64998         0.08866
   H       -3.80355        -1.74736         0.09267
   H       -1.33583        -2.60096         0.10420
   H        1.31364         2.84059        -0.15799
   H       -2.47850         3.10564        -0.01631
   H        0.13009         4.63918        -0.49673
   H       -1.56159         5.31126        -0.35690
*
