13
 SCF done        -25.092294175086          0.000659528473
C          -1.25918344974492   -1.26537791033772    0.00532758623439
S          -2.43651728276942    0.00473220168217    0.00791441098923
C          -1.23732180764452    1.25421193118641    0.01299018560878
C           0.00013448163656    0.70060446763251    0.00950587622925
C          -0.01230892547027   -0.73330406038398    0.00512578071780
N           1.30300082817264   -1.13416252426707    0.00238964826243
C           2.12113548589559   -0.03479840133262    0.00425037550322
S           3.75652048330896   -0.04903599193764    0.00226654941798
N           1.32221129462890    1.07858205714561    0.00910216552753
H          -1.57604410772393   -2.28686841013401    0.00294384178617
H          -1.53640378428658    2.28104429555533    0.01686000509906
H           1.65496448709685   -2.07585152086991   -0.00117516465520
H           1.69039229690015    2.01405386606092    0.01145873927937
