13
 SCF done        -28.180967491553          0.000240487973
C          -1.33699209165504   -0.13485399403933   -0.10727265600726
S          -0.58481801003201    1.40696586892756   -0.01387974479048
C           0.95955781477098    0.70590088668277    0.14927704791663
C           0.91407344123362   -0.66645314257156    0.13413893715429
C          -0.43269263174172   -1.15243520259920   -0.01768618844843
O          -0.76300531440263   -2.44596879707007   -0.06548061840284
C           2.03088704178149   -1.60861587418578    0.25331755031164
O           1.86466841430183   -2.80840879365337    0.21303595012449
O           3.26250784316087   -1.10554489879027    0.41335156405632
H          -2.39752880223286   -0.21498133110825   -0.22307579847808
H           1.80877316440043    1.35601378655569    0.24354495075665
H           0.06353857465163   -2.97050181847154    0.01650606559834
H           3.27484055576342   -0.14091668967666    0.43403294020867
