13
 SCF done        -35.008038322459          0.000397404531
C           0.55529964850168   -1.03202951683851   -0.00010456103119
O           1.81631424355323   -0.59633225661634   -0.01290515670753
C           1.79511919240414    0.73694212114505    0.00333046846655
C           0.50869631797889    1.19254794107350    0.02720871315329
C          -0.31885853208402    0.02448235708138    0.02510361462400
C          -1.72519053629846   -0.02069811549685    0.04512056331117
N          -2.86877148051040   -0.05769822064451    0.06048230492742
C           0.04611370095477    2.60742134116343    0.05101042791892
F           1.08023921284520    3.46243573547080    0.04495234116510
F          -0.71524951666362    2.91463530852809   -1.00932801581749
F          -0.68169720307132    2.88936248905701    1.14155016053845
H           0.37941608575761   -2.08961369670179   -0.01020352867597
H           2.72790886663230    1.26568451277874   -0.00367733187273
