# ORCA input file
# SCF done        -35.008038322459          0.000397404531
! B3LYP/G D3BJ Opt RIJCOSX def2-SVP def2/J
* xyz 0 1
   C        0.55530        -1.03203        -0.00010
   O        1.81631        -0.59633        -0.01291
   C        1.79512         0.73694         0.00333
   C        0.50870         1.19255         0.02721
   C       -0.31886         0.02448         0.02510
   C       -1.72519        -0.02070         0.04512
   N       -2.86877        -0.05770         0.06048
   C        0.04611         2.60742         0.05101
   F        1.08024         3.46244         0.04495
   F       -0.71525         2.91464        -1.00933
   F       -0.68170         2.88936         1.14155
   H        0.37942        -2.08961        -0.01020
   H        2.72791         1.26568        -0.00368
*
