# ORCA input file
# SCF done        -24.581028451581          0.000813934182
! B3LYP/G D3BJ Opt RIJCOSX def2-SVP def2/J
* xyz 0 1
   C       -0.24739         1.09585        -0.00641
   N       -1.01822        -0.00846        -0.16600
   C       -0.23634        -1.12792        -0.16990
   C       -0.76316        -2.45364        -0.32967
   C       -2.04545        -2.77773        -0.49447
   C        1.08805        -0.71003        -0.00687
   C        1.05722         0.70215         0.09328
   C        2.25077        -1.56323         0.04755
   C        3.50779        -1.14359         0.15419
   H       -0.67729         2.07816         0.02407
   H       -2.01879        -0.01260        -0.26646
   H       -0.02377        -3.24130        -0.31443
   H       -2.83726        -2.04793        -0.52083
   H       -2.35106        -3.80241        -0.61149
   H        1.90009         1.34917         0.22703
   H        2.05501        -2.62661        -0.00657
   H        3.76090        -0.09901         0.20737
   H        4.33145        -1.83562         0.18959
*
