18
 SCF done        -24.581028451581          0.000813934182
C          -0.24739010277007    1.09585139749796   -0.00641158492345
N          -1.01821740595035   -0.00845990023744   -0.16599749291356
C          -0.23633976421351   -1.12792237393611   -0.16990242459987
C          -0.76316141662949   -2.45364301209024   -0.32966882346190
C          -2.04545331741678   -2.77772683579711   -0.49447162180322
C           1.08804918405673   -0.71002544141686   -0.00687473164469
C           1.05722346559158    0.70214628901001    0.09327742633414
C           2.25077301888010   -1.56323115605845    0.04754656126277
C           3.50779199529273   -1.14359460803686    0.15419099259830
H          -0.67728633155544    2.07815820259573    0.02407423695075
H          -2.01878648868498   -0.01259546746954   -0.26646289149362
H          -0.02376945830625   -3.24129971525986   -0.31443087683508
H          -2.83725506281979   -2.04792544743001   -0.52083482981919
H          -2.35105556053166   -3.80240610651342   -0.61148969912594
H           1.90009431070629    1.34917354821899    0.22703361418883
H           2.05501244343254   -2.62661404054934   -0.00657390321648
H           3.76090108566382   -0.09900695385424    0.20737022211932
H           4.33144940525479   -1.83561837867320    0.18958582638289
