# ORCA input file
# SCF done        -42.421374907423          0.000749389556
! B3LYP/G D3BJ Opt RIJCOSX def2-SVP def2/J
* xyz 0 1
   N        2.32265         1.33117         0.23219
   C        1.15256         0.80567        -0.44326
   C        1.20037        -0.77317        -0.41278
   N        0.01817        -1.33987         0.20748
   C       -1.20059        -0.83811        -0.40179
   C       -1.23858         0.72936        -0.44266
   C       -2.50108         1.21587         0.26278
   S       -3.72836        -0.10869         0.07313
   C       -2.42634        -1.34225         0.35266
   N       -0.05488         1.31110         0.16657
   N        2.36492        -1.11647         0.36527
   S        3.53913         0.15220         0.14706
   C        2.73487        -2.43575         0.52658
   C        3.96337        -2.84779         0.80454
   H        2.11351         1.58812         1.19277
   H        1.17474         1.15453        -1.48441
   H        1.24755        -1.16723        -1.44243
   H        0.03312        -1.14459         1.20652
   H       -1.21852        -1.22372        -1.42737
   H       -1.24998         1.06336        -1.48562
   H       -2.89709         2.13046        -0.16815
   H       -2.32298         1.37031         1.32899
   H       -2.77086        -2.30917        -0.00172
   H       -2.23315        -1.40164         1.42599
   H       -0.04557         1.10749         1.16540
   H        1.89289        -3.11078         0.45645
   H        4.78701        -2.15599         0.85237
   H        4.16870        -3.88309         1.00175
*
