25
 SCF done        -40.945217696881          0.000602347030
C          -0.62698402724440    1.15191230434722   -0.14713593659203
S          -2.00990993259498    0.17432333187131   -0.40113621361094
C          -1.11256514937512   -1.27775586220201   -0.32030916292370
C           0.21733504448470   -1.02534996423716   -0.10109353780124
C           0.49844421223434    0.38574541617498   -0.00265753414404
N           1.76668397971662    0.83522276466154    0.20527260807856
C           2.68394486604975   -0.08008984583137    0.31285623249587
O           3.95828155480914    0.26625555058973    0.50686464439244
C           4.22317673326125    1.66312982342323    0.59831466625644
C           5.71702009344753    1.84914198055259    0.79126594054854
C           2.40622381565594   -1.50345864685505    0.22937983151417
C           3.53799322407380   -2.47619575354423    0.35456816371166
N           3.07015994587615   -3.80525631529897    0.69580144241791
N           1.20729558035425   -1.94927545024174    0.02136993136511
H          -0.71398355368764    2.21823045287006   -0.11863893518601
H          -1.59799250662331   -2.22536369085109   -0.43342207244813
H           3.65526756240121    2.07790773078022    1.43881071996016
H           3.87232758495831    2.15251208043537   -0.31741960793100
H           6.04122584461844    1.35467954450022    1.70285377209644
H           5.94820968610357    2.90796142293620    0.85906280578181
H           6.25866692488452    1.41955849206581   -0.04705392343633
H           4.22276373138697   -2.12317936131717    1.13511054596129
H           4.09529922202272   -2.43281236394485   -0.59964707642117
H           2.15361310905712   -3.95010608253866    0.28477544507314
H           3.70339245412906   -4.51553755834605    0.34841725084102
