# ORCA input file
# SCF done        -24.905918943678          0.000405698247
! B3LYP/G D3BJ Opt RIJCOSX def2-SVP def2/J
* xyz 0 1
   C       -0.90839        -1.30772         0.13424
   S       -1.75751         0.01319         1.04121
   C       -1.22687         1.19646        -0.29331
   N        0.07002         0.81142        -0.69155
   C        0.14177        -0.65374        -0.80516
   N        1.47534        -1.04580        -0.42232
   C        1.84072        -0.08472         0.61044
   C        1.17737         1.23155         0.16831
   H       -1.64739        -1.87333        -0.43207
   H       -0.41895        -1.96657         0.84707
   H       -1.26729         2.21132         0.09186
   H       -1.93017         1.07431        -1.11938
   H       -0.06990        -0.95391        -1.83650
   H        2.10316        -0.95825        -1.21487
   H        2.92108        -0.01188         0.71666
   H        1.41180        -0.42294         1.55751
   H        1.86367         1.84056        -0.42946
   H        0.82737         1.81939         1.01743
*
