16
 SCF done        -32.636537494922          0.000457477530
C          -1.17828675747257   -0.29652113739696   -0.27453094043297
O          -0.94446419706709   -1.51545969172139   -0.82193152764547
C           0.18759254580830   -1.94699500364214   -0.27718912744505
C           0.70249216118277   -1.01897627746082    0.62730710831222
C          -0.20537215967360    0.06198938969173    0.61925642483531
C           1.94368741163128   -1.52212102832615    1.21008363270504
S           2.90372483682458   -0.79903544286129    2.30673964055925
C           2.12214128043868   -2.82565400940015    0.57579055947614
C           1.07386988161801   -3.07490225185815   -0.30933445242089
O           1.20966668572383   -4.25688807200310   -0.90009256837510
C           2.35336285771548   -4.79066896532898   -0.40291851310516
C           2.95662823935976   -3.96201617378892    0.50447245787039
H          -2.06311003999376    0.21378579436853   -0.59840839093827
H          -0.15565855218657    0.96927403143958    1.18452870536098
H           2.63046849153582   -5.75882968139261   -0.76911631658042
H           3.86515731455508   -4.14770148031918    1.03857330782400
