# ORCA input file
# SCF done        -50.894023256724          0.000806830905
! B3LYP/G D3BJ Opt RIJCOSX def2-SVP def2/J
* xyz 0 1
   C       -0.10239         1.56221        -0.00427
   C        1.11069         0.89234        -0.00020
   C        2.49426         1.43358        -0.00171
   O        2.86008         2.57763        -0.00649
   N        3.33867         0.31825         0.00359
   C        2.63422        -0.88581         0.00863
   O        3.10341        -1.99153         0.01400
   C        1.19448        -0.50228         0.00593
   C        0.07004        -1.31177         0.00826
   C       -1.14413        -0.64335         0.00398
   C       -1.22798         0.75345        -0.00207
   C       -2.66971         1.13247        -0.00562
   O       -3.17428         2.22023        -0.01091
   N       -3.35087        -0.07508        -0.00147
   C       -2.53001        -1.19232         0.00434
   O       -2.90056        -2.33276         0.00850
   C        4.73187         0.48322         0.00298
   C        5.62564        -0.48997         0.00763
   H       -0.16651         2.63862        -0.00896
   H        0.13569        -2.38809         0.01296
   H       -4.35941        -0.13573        -0.00276
   H        5.00007         1.53166        -0.00206
   H        5.35186        -1.52892         0.01245
   H        6.67409        -0.25289         0.00634
*
