# ORCA input file
# SCF done        -25.509376232834          0.000635448447
! B3LYP/G D3BJ Opt RIJCOSX def2-SVP def2/J
* xyz 0 1
   C        1.65473        -0.88970         0.00180
   S        2.36467         0.68167         0.00457
   C        0.83292         1.47104         0.00706
   C       -0.16562         0.55185         0.00642
   C        0.30192        -0.79619         0.00331
   S       -1.06253        -1.88027         0.00210
   C       -2.16393        -0.47553         0.00716
   S       -3.77772        -0.57621         0.00690
   O       -1.51119         0.69032         0.00795
   H        2.27122        -1.76376        -0.00066
   H        0.76452         2.53844         0.00903
*
