22
 SCF done        -35.710892592997          0.000484813506
C          -1.67380844748852   -1.39867369557662    0.47201670105881
S          -2.88715815730412   -0.18890601327342    0.52259392163349
C          -1.76245458456797    1.04455340762400    0.04769134967381
C          -0.50797958263677    0.50856889865398   -0.14818406369051
C          -0.46162698850749   -0.89951641670567    0.09453549212019
O           0.61543131110087   -1.72586119606533   -0.01406735710619
C           1.87122821497468   -1.12075112696711   -0.25892465630258
C           2.17981128850083   -0.00842703755847    0.74522189800320
C           1.67621661483200    1.35108861837807    0.23720924721819
O           0.54751836423501    1.25839435876870   -0.60967028028434
C          -2.23516513272303    2.39869099136326   -0.08896091674977
C          -1.53667436670842    3.42353086671962   -0.57021283521373
H          -1.90922319957895   -2.41791321894198    0.69711186004152
H           1.91333988933316   -0.73162108649142   -1.28481211340093
H           2.58469427416161   -1.94225576367957   -0.16220596225965
H           3.25316548634187    0.05425430426646    0.92173047662516
H           1.69604133114971   -0.26348503972225    1.69112692386690
H           2.43511451489004    1.82876396903294   -0.38838587459751
H           1.45394208099535    2.01222475848973    1.08746873561019
H          -3.25667189460897    2.54354846559557    0.23920342516117
H          -0.52769797250993    3.30686010953433   -0.92238218708314
H          -1.96625304388073    4.40850184655512   -0.62790378432428
