# ORCA input file
# SCF done        -40.445324946480          0.000584620977
! B3LYP/G D3BJ Opt RIJCOSX def2-SVP def2/J
* xyz 0 1
   C       -1.65339         1.24429        -0.00133
   S       -2.69764        -0.10095         0.02367
   C       -1.38852        -1.22559         0.16872
   C       -0.16813        -0.55059         0.19572
   C       -0.33488         0.87278         0.09802
   C        0.80373         1.73441         0.11169
   C        0.62877         3.12674         0.01277
   N        0.48445         4.26300        -0.06661
   C        2.05162         1.17521         0.22168
   C        2.22321        -0.21462         0.31623
   C        1.15491        -1.08126         0.30404
   O        1.26565        -2.42937         0.38811
   C        2.54747        -3.00508         0.48678
   C       -1.64160        -2.63564         0.24519
   C       -2.85418        -3.18754         0.23858
   H       -2.04757         2.23728        -0.08607
   H        2.92448         1.81098         0.23563
   H        3.23052        -0.58884         0.39931
   H        2.38232        -4.08036         0.53255
   H        3.06412        -2.67954         1.39461
   H        3.16036        -2.76999        -0.38856
   H       -0.76028        -3.25469         0.31558
   H       -3.74925        -2.59019         0.17588
   H       -2.98672        -4.25274         0.30194
*
