24
 SCF done        -40.445324946480          0.000584620977
C          -1.65339342512469    1.24429395445118   -0.00132936423555
S          -2.69763907220535   -0.10094586872694    0.02366576915231
C          -1.38851896124034   -1.22559408857071    0.16872305768996
C          -0.16812710517376   -0.55058992346759    0.19571628779495
C          -0.33487631068234    0.87277590052957    0.09802180875647
C           0.80372552031077    1.73440554788324    0.11169092098865
C           0.62876757543115    3.12673699903685    0.01276536479470
N           0.48444801181847    4.26299545827839   -0.06661255847316
C           2.05161853755551    1.17520715478197    0.22168056720127
C           2.22320856759619   -0.21461832043832    0.31622804064750
C           1.15490597917950   -1.08125857927156    0.30403909193436
O           1.26565485586933   -2.42936787190284    0.38810530250333
C           2.54747483589319   -3.00507819431013    0.48678070428362
C          -1.64160044573682   -2.63563771371300    0.24519329623591
C          -2.85418075489442   -3.18753819122612    0.23857593279695
H          -2.04756692229331    2.23727946159978   -0.08606515779763
H           2.92448097847700    1.81097533091348    0.23562659349972
H           3.23052133018277   -0.58883506860061    0.39931097733023
H           2.38231671573297   -4.08036099238926    0.53255429378324
H           3.06411760680114   -2.67953580462543    1.39460548920457
H           3.16036282467672   -2.76999403986079   -0.38855737073329
H          -0.76027695859530   -3.25468934509220    0.31558360828339
H          -3.74924992034229   -2.59018987174712    0.17588252758867
H          -2.98672346323623   -4.25273593353192    0.30194481676965
