# ORCA input file
# SCF done        -28.469696695004          0.000640792401
! B3LYP/G D3BJ Opt RIJCOSX def2-SVP def2/J
* xyz 0 1
   C        1.33852         0.69626        -0.19561
   C        0.07141         1.21346        -0.15238
   C       -0.28828         2.62628        -0.27206
   O        0.55976         3.47903        -0.42331
   C       -1.76129         2.93604        -0.19455
   S       -1.10655        -0.04574         0.07617
   C        0.12187        -1.23009         0.10929
   C        1.38418        -0.71059        -0.04595
   C        2.57625        -1.53761        -0.04645
   C        3.81804        -1.09371        -0.19648
   H        2.19799         1.32641        -0.33132
   H       -2.28941         2.41865        -0.99278
   H       -1.91630         4.00729        -0.28813
   H       -2.16247         2.59002         0.75558
   H       -0.14537        -2.26071         0.24288
   H        2.39330        -2.59586         0.09039
   H        4.04478        -0.05099        -0.33539
   H        4.65777        -1.76662        -0.18512
*
