# ORCA input file
# SCF done        -39.257658255846          0.000335086099
! B3LYP/G D3BJ Opt RIJCOSX def2-SVP def2/J
* xyz 0 1
   C       -1.54522        -1.23048         0.16266
   S       -2.70822         0.01085         0.25701
   C       -1.52324         1.23513         0.17250
   C       -0.25370         0.71423         0.07335
   C       -0.26695        -0.72715         0.06763
   C        0.95191        -1.43772        -0.02866
   C        2.11448        -0.73037        -0.11387
   C        3.43805        -1.42788        -0.21905
   F        3.34146        -2.76493        -0.20886
   F        4.09509        -1.10550        -1.35058
   F        4.26777        -1.10150         0.79122
   C        2.13603         0.69178        -0.10894
   C        0.98176         1.40202        -0.01761
   H       -1.85038        -2.25725         0.18111
   H       -1.81422         2.26585         0.19947
   H        0.94617        -2.51665        -0.03326
   H        3.09060         1.18988        -0.17929
   H        0.98801         2.48079        -0.01302
*
