18
 SCF done        -39.257658255846          0.000335086099
C          -1.54521917052960   -1.23048095993803    0.16266379620481
S          -2.70821738317802    0.01085162046742    0.25700737601602
C          -1.52324215788895    1.23513400623468    0.17250021961736
C          -0.25370041429618    0.71423460653079    0.07334790201033
C          -0.26694874723121   -0.72715024699616    0.06763104375545
C           0.95191011080485   -1.43771965813102   -0.02865524087438
C           2.11448387317692   -0.73037332791031   -0.11387433850741
C           3.43805323670969   -1.42787924003171   -0.21904519328611
F           3.34146017968871   -2.76493330354143   -0.20885686845531
F           4.09509022798800   -1.10549661427064   -1.35058419448414
F           4.26776814191031   -1.10149526953553    0.79122426847630
C           2.13602688512179    0.69178016240518   -0.10893911579466
C           0.98176012092781    1.40202443348224   -0.01760669519713
H          -1.85038084467827   -2.25725275903103    0.18110986577027
H          -1.81422104996446    2.26584946020912    0.19946691885891
H           0.94617476570796   -2.51665003003344   -0.03326212987665
H           3.09060193894613    1.18987851640697   -0.17929292626793
H           0.98801028678453    2.48078860368290   -0.01302468796573
