# ORCA input file
# SCF done        -33.828835534253          0.000857205807
! B3LYP/G D3BJ Opt RIJCOSX def2-SVP def2/J
* xyz 0 1
   C       -0.34777         0.87449         0.11373
   O       -1.07739        -0.25774        -0.02043
   C       -0.25562        -1.28538        -0.07929
   C        1.05163        -0.85173         0.01644
   N        2.20081        -1.65265        -0.00696
   O        2.05578        -2.85389        -0.11557
   O        3.28415        -1.08997         0.08204
   C        0.99767         0.58224         0.14425
   N        2.08029         1.38718         0.26374
   C        2.05559         2.75732         0.39187
   C        3.15143         3.49846         0.49889
   H       -0.88724         1.79591         0.17423
   H       -0.65421        -2.27453        -0.18722
   H        2.98145         0.91836         0.25270
   H        1.06751         3.19218         0.40389
   H        4.13365         3.05879         0.49392
   H        3.09173         4.56455         0.60396
*
