17
 SCF done        -33.828835534253          0.000857205807
C          -0.34776565703381    0.87449436609569    0.11372651519355
O          -1.07738585601008   -0.25773722307063   -0.02043322237525
C          -0.25561808712916   -1.28538107067826   -0.07929055418884
C           1.05162800329088   -0.85173345325611    0.01644416526211
N           2.20081308536422   -1.65265049689879   -0.00695972943191
O           2.05577700474543   -2.85388812285065   -0.11557195775105
O           3.28415036787921   -1.08996800735991    0.08203956652853
C           0.99766857849958    0.58224453706876    0.14424618668076
N           2.08029120596565    1.38717991036345    0.26373862273155
C           2.05558518490663    2.75732336297118    0.39186877251350
C           3.15142952056508    3.49845537895354    0.49889443911151
H          -0.88723841517121    1.79591258099868    0.17423203319061
H          -0.65421377711629   -2.27453296387691   -0.18721546085002
H           2.98144699894571    0.91835677548936    0.25270039982193
H           1.06750608353867    3.19218374295734    0.40388538586724
H           4.13365407390820    3.05879011837398    0.49391611685267
H           3.09173168485132    4.56455056471928    0.60395872084311
