# ORCA input file
# SCF done        -27.479221220089          0.000515199595
! B3LYP/G D3BJ Opt RIJCOSX def2-SVP def2/J
* xyz 0 1
   C       -1.52966        -1.22017         0.16032
   S       -2.71090         0.01222         0.24211
   C       -1.53673         1.24573         0.15393
   C       -0.26629         0.72959         0.06746
   C       -0.25621        -0.70887         0.07079
   C        0.97662        -1.40390        -0.01301
   C        2.13004        -0.69033        -0.09554
   C        2.13127         0.72510        -0.09966
   C        0.96838         1.43533        -0.02041
   O        0.91449         2.79482        -0.02075
   H       -1.82918        -2.24855         0.18349
   H       -1.82646         2.27636         0.17065
   H        0.97683        -2.48278        -0.01059
   H        3.08024        -1.19896        -0.16190
   H        3.07623         1.24774        -0.16802
   H        1.80849         3.15293        -0.08431
*
