# ORCA input file
# SCF done        -21.194655129600          0.000507345513
! B3LYP/G D3BJ Opt RIJCOSX def2-SVP def2/J
* xyz 0 1
   C        1.22216         0.30188        -0.06783
   C        0.76318        -0.93042         0.22559
   C       -0.69040        -0.91652         0.18387
   C       -1.13272         0.32663        -0.13672
   C        0.08166         1.16610        -0.30901
   S        0.20023         2.74848        -0.68025
   C       -2.51450         0.70407        -0.26570
   C       -2.99828         1.89610        -0.61333
   H        2.23843         0.64127        -0.12401
   H        1.34740        -1.80279         0.45659
   H       -1.30300        -1.77790         0.37968
   H       -3.20388        -0.10482        -0.04833
   H       -2.36477         2.73339        -0.84512
   H       -4.05993         2.06359        -0.67578
*
