21
 SCF done        -33.853982360530          0.000443472520
C          -0.92475511489581    1.32359064003652    0.14426715388652
C           0.30810821801104    0.61255447015277    0.13555483745253
C           1.55877656269532    1.13156995320884    0.10772979698462
S           2.81379042833010   -0.09591517535316    0.20843355031624
F           4.10426330332597    1.26961469942255    0.03807545154209
C           1.52596595356118   -1.37373880034841    0.08390448484850
C           0.28445180731599   -0.84825099776217    0.14551263913217
C          -0.98743330482805   -1.50589267782648    0.16894666747428
C          -2.12540662213918   -0.78247444369950    0.18429906497655
C          -2.11639160598687    0.65818798972163    0.18199929195214
C          -3.35555018658340    1.42055010619292    0.22110390081921
C          -4.57340628303203    0.94558966622737    0.46029494869368
H          -0.89394234602852    2.40338997561527    0.13299792961123
H           1.86791985979508    2.15656709955644    0.12003201627885
H           3.13009592501557   -0.26404334942058   -1.09092602616214
H           1.77211320716996   -2.41841890476830    0.12090101786292
H          -1.00654320137674   -2.58564029805558    0.16193980644468
H          -3.07925215700186   -1.28557470997093    0.18511749223837
H          -3.23090286765269    2.48403781966528    0.05704324310737
H          -4.77144532072202   -0.09444671927878    0.65509921360879
H          -5.43011625497307    1.59694365668411    0.48061351893143
