# ORCA input file
# SCF done        -29.560894116717          0.000625633311
! B3LYP/G D3BJ Opt RIJCOSX def2-SVP def2/J
* xyz 0 1
   C        2.27399         0.08353         0.12824
   S        1.52021        -1.44163         0.44864
   C       -0.01706        -0.75547         0.16117
   C        0.06514         0.58601        -0.16535
   C        1.38457         1.06910        -0.18414
   C       -1.30991         1.07666        -0.39193
   O       -1.65918         2.19178        -0.68944
   C       -2.18632        -0.14494        -0.16104
   C       -1.38900        -1.19543         0.16365
   C       -3.61793        -0.17388        -0.27018
   C       -4.37998         0.86218        -0.62244
   H        3.34170         0.15136         0.19315
   H        1.66429         2.08086        -0.41265
   H       -1.70844        -2.19750         0.38687
   H       -4.07187        -1.13235        -0.04357
   H       -3.95388         1.82172        -0.85607
   H       -5.45069         0.77172        -0.68895
*
