17
 SCF done        -29.560894116717          0.000625633311
C           2.27399140634625    0.08353199146919    0.12824473205388
S           1.52020587785678   -1.44162513014951    0.44863644926335
C          -0.01705774644895   -0.75547207104163    0.16117185780607
C           0.06513959440365    0.58600664456853   -0.16534545823370
C           1.38457254106017    1.06910201147183   -0.18413591204386
C          -1.30990738116954    1.07666180855186   -0.39193109998793
O          -1.65918316912144    2.19177753196612   -0.68944493009906
C          -2.18632107691863   -0.14493510348762   -0.16103534797341
C          -1.38899776681980   -1.19543005757716    0.16365480614582
C          -3.61792895580528   -0.17387693463109   -0.27018124659565
C          -4.37998086378897    0.86217863966437   -0.62244050278029
H           3.34169955444941    0.15136199303502    0.19315196371641
H           1.66429131644762    2.08085879255098   -0.41264970344037
H          -1.70844003799059   -2.19749816351814    0.38687201933003
H          -4.07187327687485   -1.13234566905804   -0.04357053498081
H          -3.95387508978042    1.82171502056851   -0.85606815025667
H          -5.45069492584539    0.77171869561677   -0.68894894192383
