21
 SCF done        -29.743400900355          0.000556356273
C          -1.53030389012256   -1.22491979875126    0.16809676524725
S          -2.70409388797586    0.01369707627511    0.25919719392452
C          -1.51996824961383    1.24232872010725    0.16742682804441
C          -0.25074840698460    0.72194682835276    0.07003520022583
C          -0.25686600458432   -0.71554189658215    0.07046633702435
C           0.97416765600292   -1.40572335394053   -0.02493106513804
C           2.15288944221880   -0.72538692588176   -0.11747541411535
C           3.43935313948741   -1.49106092646309   -0.21873563302930
C           2.15897574653586    0.70760484430603   -0.11836622281598
C           3.43941407159369    1.48896195585366   -0.22013847117421
C           0.98629929025153    1.39937222809175   -0.02616782675578
H          -1.83614239832903   -2.25161054598684    0.19128662349317
H          -1.81698271677131    2.27159806844134    0.19003184697459
H           0.96101078779519   -2.48644017444135   -0.02340259726385
H           3.24269148513854   -2.56021259891939   -0.19960611552360
H           4.10074890156441   -1.25108860414906    0.61328349361888
H           3.95823633157407   -1.25641072510884   -1.14781268493055
H           4.31267063595376    0.85062364395353   -0.28850936499328
H           3.55234862597529    2.13221884563237    0.65205729841679
H           3.41384914831010    2.13017289731366   -1.10076584095020
H           0.98919029197991    2.48034044189682   -0.02628035027964
