# ORCA input file
# SCF done        -29.743400900355          0.000556356273
! B3LYP/G D3BJ Opt RIJCOSX def2-SVP def2/J
* xyz 0 1
   C       -1.53030        -1.22492         0.16810
   S       -2.70409         0.01370         0.25920
   C       -1.51997         1.24233         0.16743
   C       -0.25075         0.72195         0.07004
   C       -0.25687        -0.71554         0.07047
   C        0.97417        -1.40572        -0.02493
   C        2.15289        -0.72539        -0.11748
   C        3.43935        -1.49106        -0.21874
   C        2.15898         0.70760        -0.11837
   C        3.43941         1.48896        -0.22014
   C        0.98630         1.39937        -0.02617
   H       -1.83614        -2.25161         0.19129
   H       -1.81698         2.27160         0.19003
   H        0.96101        -2.48644        -0.02340
   H        3.24269        -2.56021        -0.19961
   H        4.10075        -1.25109         0.61328
   H        3.95824        -1.25641        -1.14781
   H        4.31267         0.85062        -0.28851
   H        3.55235         2.13222         0.65206
   H        3.41385         2.13017        -1.10077
   H        0.98919         2.48034        -0.02628
*
