# ORCA input file
# SCF done        -23.085638814564          0.000216766051
! B3LYP/G D3BJ Opt RIJCOSX def2-SVP def2/J
* xyz 0 1
   C       -1.15450        -0.02418        -0.00003
   O       -0.36035         1.05593        -0.00123
   C        0.91507         0.64290        -0.00089
   C        0.95820        -0.72009         0.00062
   C       -0.39354        -1.15579         0.00070
   F       -0.82945        -2.41294         0.00172
   F        2.04620        -1.48603         0.00145
   H       -2.21543         0.12080         0.00006
   H        1.69163         1.38016        -0.00174
*
