# ORCA input file
# SCF done        -31.861849945749          0.000436366985
! B3LYP/G D3BJ Opt RIJCOSX def2-SVP def2/J
* xyz 0 1
   C       -1.53095        -1.23436         0.15692
   S       -2.70400         0.00000         0.24064
   C       -1.53095         1.23436         0.15692
   C       -0.25838         0.71991         0.06916
   C       -0.25838        -0.71991         0.06916
   C        0.98685        -1.39236        -0.01701
   F        0.98458        -2.74144        -0.01715
   C        2.15754        -0.70761        -0.09825
   C        2.15754         0.70761        -0.09825
   C        0.98685         1.39236        -0.01701
   F        0.98458         2.74144        -0.01715
   H       -1.82148        -2.26517         0.17665
   H       -1.82148         2.26517         0.17665
   H        3.09067        -1.24279        -0.16344
   H        3.09067         1.24279        -0.16344
*
