15
 SCF done        -31.861849945749          0.000436366985
C          -1.53094746513258   -1.23435638121877    0.15691699042230
S          -2.70399820320110    0.00000001493579    0.24064466878869
C          -1.53094745937866    1.23435637670619    0.15691698918176
C          -0.25837802812102    0.71991143008748    0.06915878182593
C          -0.25837802681215   -0.71991143148162    0.06915878196727
C           0.98685095424368   -1.39235826887205   -0.01700648944187
F           0.98458352163938   -2.74144376548005   -0.01714778674764
C           2.15753916422622   -0.70760909852373   -0.09824627415123
C           2.15753916493388    0.70760910491548   -0.09824627230915
C           0.98685094946352    1.39235826767080   -0.01700648856590
F           0.98458351279510    2.74144375075281   -0.01714778564064
H          -1.82148133876743   -2.26516660235607    0.17664782000689
H          -1.82148133419502    2.26516659814672    0.17664781795774
H           3.09066729329078   -1.24279445824060   -0.16344037720062
H           3.09066729501540    1.24279446295762   -0.16344037609354
