# ORCA input file
# SCF done        -27.573396668192          0.000673480482
! B3LYP/G D3BJ Opt RIJCOSX def2-SVP def2/J
* xyz 0 1
   C       -1.93402        -0.53959        -0.01428
   N       -1.49486         0.76493         0.14926
   C       -0.14658         0.67627         0.05368
   N        1.02240         1.35414         0.08081
   C        2.00437         0.37946        -0.12283
   N        1.50548        -0.82645        -0.26793
   C        0.16404        -0.67357        -0.16238
   N       -0.98489        -1.40573        -0.19863
   C        3.39741         0.73121        -0.15866
   C        4.36853        -0.15330        -0.36633
   H       -2.97655        -0.78346         0.01396
   H       -2.06851         1.57725         0.30176
   H        1.18371         2.33850         0.21322
   H        3.61830         1.78061        -0.00525
   H        4.12899        -1.19011        -0.51953
   H        5.40450         0.13561        -0.38984
*
