# ORCA input file
# SCF done        -48.281244837309          0.000347331767
! B3LYP/G D3BJ Opt RIJCOSX def2-SVP def2/J
* xyz 0 1
   C        0.51434         0.89186        -1.00459
   C       -0.46292         1.87123        -0.94745
   O       -0.26657         3.06040        -1.62415
   C        0.02352         4.18002        -0.80468
   C        1.45133         4.15219        -0.25456
   C        2.48260         4.26024        -1.37078
   C       -1.64919         1.62853        -0.23299
   C       -1.79979         0.40543         0.40371
   C       -0.81522        -0.57856         0.34544
   C        0.34962        -0.32864        -0.37109
   O       -1.09618        -1.73362         1.00684
   C       -0.17540        -2.80281         0.93514
   C       -0.78996        -4.00193         1.65145
   C       -2.00321        -4.53965         0.90322
   C       -2.70728         2.63691        -0.21270
   C       -3.59349         2.79898         0.76014
   H        1.41586         1.08801        -1.56504
   H       -0.69242         4.24011         0.02659
   H       -0.11257         5.04863        -1.45496
   H        1.59478         3.21876         0.29540
   H        1.56765         4.97996         0.44741
   H        2.30426         3.48927        -2.11627
   H        3.48951         4.14196        -0.97731
   H        2.41270         5.22938        -1.86000
   H       -2.70915         0.18023         0.93781
   H        1.13347        -1.06570        -0.44335
   H        0.77036        -2.51794         1.41869
   H        0.02842        -3.05874        -0.11386
   H       -1.08553        -3.68937         2.65390
   H       -0.02856        -4.77861         1.74264
   H       -2.74157        -3.75165         0.78239
   H       -2.45585        -5.36137         1.45235
   H       -1.71575        -4.89922        -0.08263
   H       -2.72438         3.29018        -1.07633
   H       -3.58713         2.18926         1.64800
   H       -4.35375         3.55966         0.70957
*
