36
 SCF done        -48.281244837309          0.000347331767
C           0.51434488464270    0.89186143168872   -1.00459296767360
C          -0.46291522513198    1.87122752560530   -0.94744951765948
O          -0.26656711883090    3.06040140155761   -1.62415123049869
C           0.02351616292399    4.18002019459759   -0.80468319432102
C           1.45132627360361    4.15219027606605   -0.25455501976724
C           2.48259957962744    4.26023740427016   -1.37078042180729
C          -1.64919481601911    1.62852844719527   -0.23298982167507
C          -1.79978937759657    0.40542992972366    0.40370952316784
C          -0.81522431300391   -0.57856377522780    0.34543925632129
C           0.34961928492615   -0.32863994763182   -0.37108681279612
O          -1.09618201262173   -1.73361503798456    1.00683510057107
C          -0.17540495669438   -2.80281214411876    0.93513892323974
C          -0.78996268832394   -4.00192810299454    1.65145323769261
C          -2.00321472844907   -4.53965482876338    0.90322212101926
C          -2.70727738876014    2.63691173906970   -0.21269521775163
C          -3.59348595067668    2.79897707415340    0.76013614700603
H           1.41586046682996    1.08801177004251   -1.56503531581184
H          -0.69241556497042    4.24010810506361    0.02658503471108
H          -0.11257276668354    5.04862730712288   -1.45495614840053
H           1.59478098374898    3.21876411521486    0.29540484679982
H           1.56765300252230    4.97996460862535    0.44740722920852
H           2.30426315956530    3.48926689283082   -2.11626652699959
H           3.48950909344737    4.14195618975545   -0.97731481556750
H           2.41270231419852    5.22937677104696   -1.86000201141447
H          -2.70914724726720    0.18023462814699    0.93781368514985
H           1.13347203203563   -1.06570462191322   -0.44334595516916
H           0.77035692392389   -2.51793872999662    1.41869465926711
H           0.02841841099418   -3.05874387637125   -0.11386192534335
H          -1.08552694997935   -3.68937321464881    2.65389884288732
H          -0.02856171056419   -4.77861437666704    1.74263952412209
H          -2.74157227663890   -3.75165200560817    0.78238837467458
H          -2.45584519662525   -5.36137193581393    1.45234659085619
H          -1.71574673063707   -4.89921526486574   -0.08262878341969
H          -2.72438155190605    3.29018286894618   -1.07633498153162
H          -3.58713248400821    2.18926029056010    1.64800262711121
H          -4.35375151760419    3.55965889132270    0.70957494380494
