# ORCA input file
# SCF done        -37.140060719167          0.000924887879
! B3LYP/G D3BJ Opt RIJCOSX def2-SVP def2/J
* xyz 0 1
   C       -1.57495         1.22469        -0.04238
   S       -2.70457        -0.04359        -0.12284
   C       -1.48319        -1.26964        -0.05964
   C       -0.21824        -0.68960        -0.01590
   C       -0.28469         0.75037         0.00735
   C        0.91588         1.50168         0.06220
   F        0.82031         2.84680         0.10543
   C        2.13178         0.89722         0.05845
   C        2.20585        -0.50996        -0.02259
   C        1.07565        -1.26825        -0.06590
   F        1.21171        -2.60393        -0.19241
   C       -1.92983        -2.64087        -0.01679
   C       -1.33704        -3.64305         0.62484
   H       -1.89619         2.24652        -0.03398
   H        3.03314         1.48611         0.09779
   H        3.16739        -0.99519        -0.06466
   H       -2.87946        -2.81136        -0.50986
   H       -0.42247        -3.52133         1.17734
   H       -1.76335        -4.63078         0.61461
*
