29
 SCF done        -43.877896245124          0.000936661372
C          -3.25766897459271    0.80660841138378   -0.13090220722524
C          -2.18030273235324    1.63421598670315   -0.06009499108054
C          -0.94543866548662    0.89985916026304   -0.12561942727514
C          -1.18654811902878   -0.48376050300087   -0.27238385597759
S          -2.87811613094129   -0.86760103739332   -0.30655441227728
N          -0.26380727070268   -1.42514892290319   -0.36053361325215
C           0.97850938792838   -1.01332755876101   -0.29492209748375
C           1.37025313290400    0.32703394380724   -0.12256201753997
C           0.40256846317146    1.30931899717786   -0.02289438110301
C           0.78580996682818    2.74721683212704    0.17537136662376
C           1.05980378162118    3.43553486591917   -1.16363555646425
C           2.85922090025070    0.51211462371190   -0.11252508667250
C           3.49093623933683   -0.84975876336993    0.16351362397936
S           2.31169594377813   -2.13691916417227   -0.40322530435975
C          -2.34579738568391    3.08310911595178    0.01844287417020
C          -3.24838370790294    3.67902996170036    0.78437648597918
H          -4.28828968025788    1.10371997378069   -0.12643158535966
H           1.68450708877067    2.80381692158000    0.79290269656692
H          -0.01405468011949    3.26559334537416    0.70491376221692
H           1.91397360564600    2.98120275314378   -1.65947412491547
H           1.27266270696404    4.49041854193187   -1.00791728432782
H           0.20160117354271    3.34661470223515   -1.82603149378149
H           3.17942019584061    1.23391304907214    0.64054291606785
H           3.17842580274181    0.88316254863613   -1.09141687109896
H           3.64780243539558   -1.01040907297139    1.23079734134011
H           4.43182387371928   -0.99626998014485   -0.36111835520292
H          -1.71148826012107    3.67504919350675   -0.62644666017825
H          -3.88991480214971    3.12017359727274    1.44342968119847
H          -3.36442428909929    4.74885847743809    0.79476857743302
