# ORCA input file
# SCF done        -28.688350172077          0.000211762673
! B3LYP/G D3BJ Opt RIJCOSX def2-SVP def2/J
* xyz 0 1
   C       -1.52477         1.28538        -0.10897
   C       -0.25112         0.76614        -0.03857
   C       -0.25106        -0.67039        -0.06742
   C        0.98400        -1.35511        -0.00323
   C        2.14282        -0.64459         0.08496
   C        2.13942         0.76987         0.11390
   C        0.97453         1.46954         0.05389
   C       -1.53559        -1.20337        -0.15930
   S       -2.71256         0.06681        -0.20866
   C       -1.91277        -2.58378        -0.20952
   C       -3.16277        -3.03660        -0.29921
   H       -1.81783         2.31634        -0.10697
   H        1.00031        -2.43432        -0.02460
   H        3.09009        -1.16117         0.13419
   H        3.08339         1.28984         0.18461
   H        0.96045         2.54907         0.07500
   H       -1.08900        -3.28461        -0.16892
   H       -4.00373        -2.36423        -0.34175
   H       -3.38073        -4.08894        -0.33199
*
