19
 SCF done        -28.688350172077          0.000211762673
C          -1.52477332681060    1.28538131136360   -0.10896835792105
C          -0.25111804941128    0.76614147590242   -0.03856543407467
C          -0.25106103101811   -0.67039013060804   -0.06741871844790
C           0.98399638500229   -1.35510648266398   -0.00322999347028
C           2.14281632827864   -0.64458663950536    0.08495607699392
C           2.13941737683699    0.76987238323686    0.11390175828808
C           0.97453004198796    1.46953868675954    0.05388583665681
C          -1.53558581195330   -1.20336684630987   -0.15929922940321
S          -2.71256008067233    0.06681132195615   -0.20866003135920
C          -1.91276910485378   -2.58377743665316   -0.20952120900951
C          -3.16277325490464   -3.03660216795915   -0.29921310011070
H          -1.81783442223687    2.31633523929958   -0.10697324527417
H           1.00031310569594   -2.43431622426588   -0.02459890068073
H           3.09008950248942   -1.16117230881899    0.13419332441862
H           3.08339233376046    1.28983976887965    0.18460797308576
H           0.96045397009648    2.54906608650000    0.07500305564768
H          -1.08899663835152   -3.28461326992922   -0.16892360694890
H          -4.00372941711670   -2.36422520863762   -0.34175357351116
H          -3.38072790681859   -4.08893955854584   -0.33199262487942
