26
 SCF done        -47.848661324953          0.000931994275
C          -0.61220481282485    0.90793034939619    0.38545559406345
C          -0.41981977834124    0.55731293090538   -0.90685788629452
C           0.58880615856777   -0.42972289078884   -1.07966052125945
C           1.15449329499270   -0.79705097769079    0.12637029125531
S           0.44373407632880    0.06854139575844    1.45239337326558
C           2.19916169268142   -1.72971831915409    0.33139638719520
C           2.64759935591287   -2.68181707405196   -0.56296996246669
C           2.17343033766401   -3.00077395179685   -1.91499887775968
O           2.40093075005576   -4.10284291836604   -2.37475784257252
N           1.57222376610642   -2.03993956248353   -2.72294994586032
C           0.92255931370451   -0.84011894830474   -2.44977562470286
O           0.55758904636724   -0.13914336742904   -3.37367252476045
C           1.53325750568967   -2.41334156405208   -4.14444215620764
C           0.23316953387774   -3.12504330112443   -4.49362258041567
C           3.67651062966025   -3.48680709099994   -0.00356712853991
C           3.99990960190165   -3.13758000927005    1.26317931275533
S           3.04707464657202   -1.82808027256884    1.84186711974739
H          -1.30931173903390    1.61611496897380    0.78648847690988
H          -0.96171074439458    0.96776749469484   -1.73905882899031
H           2.38274153933250   -3.06949920995954   -4.33542506966207
H           1.63200890321842   -1.49523870669967   -4.72480306135581
H           0.13509025903820   -4.03365281680742   -3.90511408732864
H           0.23531091518993   -3.38823716872811   -5.54749834032666
H          -0.61622110847599   -2.47523538102408   -4.29710784112750
H           4.13727012717201   -4.28611815207943   -0.55425461852647
H           4.74109672903658   -3.57118545634901    1.90429634296459
