# ORCA input file
# SCF done        -47.848661324953          0.000931994275
! B3LYP/G D3BJ Opt RIJCOSX def2-SVP def2/J
* xyz 0 1
   C       -0.61220         0.90793         0.38546
   C       -0.41982         0.55731        -0.90686
   C        0.58881        -0.42972        -1.07966
   C        1.15449        -0.79705         0.12637
   S        0.44373         0.06854         1.45239
   C        2.19916        -1.72972         0.33140
   C        2.64760        -2.68182        -0.56297
   C        2.17343        -3.00077        -1.91500
   O        2.40093        -4.10284        -2.37476
   N        1.57222        -2.03994        -2.72295
   C        0.92256        -0.84012        -2.44978
   O        0.55759        -0.13914        -3.37367
   C        1.53326        -2.41334        -4.14444
   C        0.23317        -3.12504        -4.49362
   C        3.67651        -3.48681        -0.00357
   C        3.99991        -3.13758         1.26318
   S        3.04707        -1.82808         1.84187
   H       -1.30931         1.61611         0.78649
   H       -0.96171         0.96777        -1.73906
   H        2.38274        -3.06950        -4.33543
   H        1.63201        -1.49524        -4.72480
   H        0.13509        -4.03365        -3.90511
   H        0.23531        -3.38824        -5.54750
   H       -0.61622        -2.47524        -4.29711
   H        4.13727        -4.28612        -0.55425
   H        4.74110        -3.57119         1.90430
*
