14
 SCF done        -23.960699729136          0.000586755920
C          -0.58990641701116   -1.43789906484875    1.15381932865058
S          -0.49312530260173    0.26537623541326    0.94023400178016
C           0.99200879521065    0.11469406636970    0.07860015936584
C           1.40042747114780   -1.17738552915039   -0.04327612060236
C           0.48124011501968   -2.10647320927024    0.58402635028029
C           0.68253045391110   -3.47855662356988    0.59190505312006
S           2.03995236530692   -4.24910812287648   -0.13798206462311
C           2.93911200972238   -2.91791930861107   -0.79091932807517
C           2.58922248567287   -1.62570583196760   -0.70328413160932
H          -1.41873403180991   -1.86294392851331    1.68125738827544
H           1.48019692487778    0.99498839467422   -0.29031707974403
H          -0.00749527702637   -4.15641832952033    1.06118351302040
H           3.83764273136050   -3.23946544375939   -1.29118200910255
H           3.22600767621951   -0.87414330436974   -1.14858506073624
