16
 SCF done        -26.655818317961          0.000462054371
C          -1.51152030331950   -1.23994364145072    0.16615073327020
S          -2.68750356796698   -0.00364926386320    0.25433707519385
C          -1.50675531538185    1.22603897977358    0.16662380741160
C          -0.23562466413678    0.71137278779207    0.07280515824855
C          -0.23787369566100   -0.72911686220423    0.07214376172193
C           0.98642057793396   -1.43354091449854   -0.01980234341621
C           2.14711153763033   -0.72397686790819   -0.10615904540642
S           3.72636491863565   -1.51042471221921   -0.22709346441460
C           2.15400485248484    0.69839310432366   -0.10444631411909
C           0.99836170073767    1.40365141312978   -0.01767050040087
H          -1.81396890630749   -2.26750145602701    0.18820583602306
H          -1.80405067362802    2.25525098979092    0.18858404282097
H           0.97644935761506   -2.51384782338488   -0.02022895362568
H           3.26792031741912   -2.76070717676458   -0.20166604835940
H           3.10711036142655    1.20017382159731   -0.17481719571363
H           1.00071350251843    2.48302762191322   -0.01660654923425
