# ORCA input file
# SCF done        -17.888209533897          0.000472845454
! B3LYP/G D3BJ Opt RIJCOSX def2-SVP def2/J
* xyz 0 1
   C       -1.26947        -0.08950        -0.00162
   S       -0.50360         1.45833         0.00051
   C        1.06798         0.70716         0.00196
   O        2.20503         1.43117         0.00413
   C        0.97655        -0.64861         0.00053
   C       -0.36659        -1.09659        -0.00219
   H       -2.33948        -0.13802        -0.00256
   H        2.00936         2.37450         0.00483
   H        1.83439        -1.29382         0.00101
   H       -0.64036        -2.13626        -0.00381
*
