10
 SCF done        -17.888209533897          0.000472845454
C          -1.26947457333007   -0.08950478521643   -0.00162267612010
S          -0.50359605920390    1.45832798460952    0.00050861419735
C           1.06797759260653    0.70716176778192    0.00196150219965
O           2.20503240100821    1.43116894027964    0.00413279587060
C           0.97655443580794   -0.64860819872655    0.00053231572720
C          -0.36659175161939   -1.09659425876884   -0.00219056167330
H          -2.33947735562253   -0.13802040735516   -0.00256017963248
H           2.00935997324874    2.37450372405809    0.00483329533200
H           1.83438822914181   -1.29382141543692    0.00100665168005
H          -0.64036289203734   -2.13626335122527   -0.00381175758098
