21
 SCF done        -31.023774989292          0.000892310055
C           1.26364717770477   -1.43828880122094   -0.05647391432316
C           2.42493128229519   -0.71755938056495   -0.05838290975785
C           2.38601081262457    0.67851570375433   -0.00484212525662
C           1.20234188850943    1.38967636078495    0.05908321070603
C          -0.02163826639057    0.65275155154257    0.05606122315105
C           0.02492854697982   -0.77083544913431   -0.00304646509419
C          -1.19965426584086   -1.47143772906924   -0.00758977723797
C          -2.37692710860244   -0.77817817185509    0.04105341542368
C          -2.31183390139873    0.62384836507211    0.09058769371628
N          -1.19997920419238    1.30200202862881    0.09796305427063
C           1.28914591675350    2.84195368046911    0.12013406353830
C           0.30386828563251    3.70836265697136    0.32714503057912
H           1.27481106499227   -2.51825632604857   -0.09689217045929
H           3.38057775018415   -1.21940787879137   -0.10160720034251
H           3.32136243405964    1.22112047225142   -0.00806241973560
H          -1.18482862195078   -2.55227473545391   -0.05188483252021
H          -3.33232504066341   -1.27992501295352    0.03946469758148
H          -3.22037552993755    1.21305254249237    0.12693437942154
H           2.29985231852740    3.21808568434226   -0.00130925047493
H          -0.71050069381623    3.38525756738860    0.46762444692129
H           0.50110515452970    4.76740687139415    0.36386984989291
