# ORCA input file
# SCF done        -32.657752169772          0.000634170780
! B3LYP/G D3BJ Opt RIJCOSX def2-SVP def2/J
* xyz 0 1
   C       -1.62127         1.20323        -0.02451
   C       -2.39602         0.07383        -0.15107
   C       -3.88037         0.08881        -0.23527
   C       -1.55572        -1.10133        -0.18638
   C       -0.26044        -0.64108        -0.07697
   C       -0.26492         0.82114         0.02675
   C        0.93516         1.46868         0.14075
   C        2.10866         0.68486         0.15232
   C        2.02439        -0.67360         0.05161
   O        0.88490        -1.34325        -0.06113
   C       -1.88215        -2.50223        -0.30547
   C       -3.07559        -3.07424        -0.43967
   H       -1.98109         2.21342         0.02810
   H       -4.24761         1.11103        -0.17051
   H       -4.31542        -0.49141         0.57796
   H       -4.21375        -0.34274        -1.17864
   H        0.99817         2.54351         0.21998
   H        3.07672         1.14827         0.23998
   H        2.88709        -1.32351         0.05498
   H       -1.00485        -3.13991        -0.27862
   H       -3.99639        -2.52274        -0.47789
   H       -3.16453        -4.14472        -0.51935
*
