17
 SCF done        -33.447587199017          0.000898651958
C          -0.23735316121063    1.10890833405917   -0.07902327113426
S          -1.41883961125912   -0.12325110188352   -0.06117201415243
C          -0.20131948861376   -1.34342157696910    0.14832241472315
C          -0.49176821936626   -2.78178173721342    0.26242085722690
O           0.37908668806343   -3.59671426131221    0.40568671057289
O          -1.78351932991405   -3.14376470250898    0.20394282854095
C           1.05257879533241   -0.79410866756785    0.18820704841546
C           1.03534217323693    0.61510486752106    0.06290815560836
O           2.09543819411058    1.45496198038814    0.04089855372922
C           3.29263057399150    1.04379665770038    0.55571816654128
C           4.39198124473122    1.75475384186480    0.37587056346313
H          -0.52682039901425    2.13259378680378   -0.20163131542360
H          -2.38350094704260   -2.39448132200328    0.08910465463353
H           1.93047265515951   -1.40653552393997    0.28190102003056
H           3.27707931446948    0.13369707631349    1.14174243081550
H           4.38337768560290    2.66164112445340   -0.20063454189838
H           5.32051383172267    1.44406122429412    0.81309773830769
