# ORCA input file
# SCF done        -33.447587199017          0.000898651958
! B3LYP/G D3BJ Opt RIJCOSX def2-SVP def2/J
* xyz 0 1
   C       -0.23735         1.10891        -0.07902
   S       -1.41884        -0.12325        -0.06117
   C       -0.20132        -1.34342         0.14832
   C       -0.49177        -2.78178         0.26242
   O        0.37909        -3.59671         0.40569
   O       -1.78352        -3.14376         0.20394
   C        1.05258        -0.79411         0.18821
   C        1.03534         0.61510         0.06291
   O        2.09544         1.45496         0.04090
   C        3.29263         1.04380         0.55572
   C        4.39198         1.75475         0.37587
   H       -0.52682         2.13259        -0.20163
   H       -2.38350        -2.39448         0.08910
   H        1.93047        -1.40654         0.28190
   H        3.27708         0.13370         1.14174
   H        4.38338         2.66164        -0.20063
   H        5.32051         1.44406         0.81310
*
