23
 SCF done        -33.963991221202          0.000994811213
C          -1.49214661673595    1.26891472032585    0.08996146379932
S          -2.67500484252356    0.04661247195317    0.03508529331798
C          -1.49292491766689   -1.22240334333207   -0.02384319899519
C          -0.20874706496321   -0.68781609246017    0.03187596953376
C          -0.21475472406354    0.74974038851672    0.08862061182056
C           0.99786276546261    1.47047749565700    0.14126633001830
C           2.19498095131890    0.80296919160118    0.16157213529061
C           3.48342546282435    1.48347398491764    0.21079677139409
C           3.68883536634867    2.75496264937265    0.53088620458773
C           2.18961489811326   -0.62219668806923    0.14124418502360
C           1.04185157640561   -1.34843566846613    0.08738265410358
C          -1.98128220657257   -2.57019980888839   -0.12843847857563
C          -1.32106351831543   -3.63476557941801   -0.58072914272042
H          -1.78553064338779    2.29921146987382    0.11876313622442
H           0.95565423324084    2.54842885522969    0.15745738765939
H           4.33518828603862    0.85744850883564   -0.02485140527299
H           2.88659983406163    3.42123520926280    0.79988070246928
H           4.67875017198319    3.17762312412835    0.54511635821196
H           3.14118327381582   -1.13316323573860    0.18623803289442
H           1.07927251198229   -2.42521603272039    0.10816663445743
H          -3.01880157409841   -2.68555220032570    0.16377589463269
H          -0.31141530131485   -3.58400426007374   -0.94544223461708
H          -1.79474792195357   -4.60014516018197   -0.61906530525782
