31
 SCF done        -43.529549944173          0.000423154471
C           0.52833723651119    0.82452327635042   -1.35420051389359
S          -0.68709026291121   -0.36926194555032   -1.61939314711240
C           0.16009825804489   -1.52241262968310   -0.62665426358836
C           1.31997170990956   -0.97137442554980   -0.13245309784036
C           1.52495466842715    0.37634318154838   -0.54304549229249
S           2.93179565615048    1.27636777327277   -0.00301585764077
C           2.61070406783973    2.93869482816208   -0.69144267280559
C           3.72824473891309    3.87382995582376   -0.27122912433831
S           2.40687754420720   -1.84410720502199    0.94863447320705
C           3.84075213090914   -2.07274404686602   -0.18181814285402
C           4.92041912557819   -2.86231023595866    0.52880533590600
C          -0.32663271824828   -2.84458110407951   -0.40423813484442
C          -1.46406322405263   -3.34291924614847   -0.92076204281180
C          -1.91681459333832   -4.68555264673507   -0.68787014478146
C          -3.03731094728848   -5.18653832442133   -1.20598918152792
H           0.40867698309240    1.78404123940894   -1.81333608957948
H           1.64796828490249    3.27442958193074   -0.30459446620234
H           2.56427611761149    2.84572480036508   -1.77693302251626
H           3.77845555520586    3.94399405521918    0.81287578937430
H           3.55219776639898    4.86692018106670   -0.67881243066393
H           4.68597233398300    3.51054437580861   -0.63758050850568
H           4.19540702482994   -1.08303605053625   -0.46609474491314
H           3.47064574514857   -2.60216401943144   -1.06054409943170
H           5.25425659343966   -2.33015611257614    1.41643499238365
H           5.77060380858761   -3.00603549974331   -0.13498579958249
H           4.54314771207592   -3.83642634347167    0.83197573949716
H           0.29953110827954   -3.45675620314436    0.23200565719068
H          -2.08417631582087   -2.71613466851393   -1.54966193367888
H          -1.28986244723660   -5.29871742418528   -0.05303651334276
H          -3.67616818324477   -4.59555093361784   -1.84178828422174
H          -3.35213547790764   -6.19752418372526   -1.01426227858724
