# ORCA input file
# SCF done        -43.529549944173          0.000423154471
! B3LYP/G D3BJ Opt RIJCOSX def2-SVP def2/J
* xyz 0 1
   C        0.52834         0.82452        -1.35420
   S       -0.68709        -0.36926        -1.61939
   C        0.16010        -1.52241        -0.62665
   C        1.31997        -0.97137        -0.13245
   C        1.52495         0.37634        -0.54305
   S        2.93180         1.27637        -0.00302
   C        2.61070         2.93869        -0.69144
   C        3.72824         3.87383        -0.27123
   S        2.40688        -1.84411         0.94863
   C        3.84075        -2.07274        -0.18182
   C        4.92042        -2.86231         0.52881
   C       -0.32663        -2.84458        -0.40424
   C       -1.46406        -3.34292        -0.92076
   C       -1.91681        -4.68555        -0.68787
   C       -3.03731        -5.18654        -1.20599
   H        0.40868         1.78404        -1.81334
   H        1.64797         3.27443        -0.30459
   H        2.56428         2.84572        -1.77693
   H        3.77846         3.94399         0.81288
   H        3.55220         4.86692        -0.67881
   H        4.68597         3.51054        -0.63758
   H        4.19541        -1.08304        -0.46609
   H        3.47065        -2.60216        -1.06054
   H        5.25426        -2.33016         1.41643
   H        5.77060        -3.00604        -0.13499
   H        4.54315        -3.83643         0.83198
   H        0.29953        -3.45676         0.23201
   H       -2.08418        -2.71613        -1.54966
   H       -1.28986        -5.29872        -0.05304
   H       -3.67617        -4.59555        -1.84179
   H       -3.35214        -6.19752        -1.01426
*
