# ORCA input file
# SCF done        -32.933693805065          0.000505580674
! B3LYP/G D3BJ Opt RIJCOSX def2-SVP def2/J
* xyz 0 1
   C        3.42681         0.13151         0.00531
   C        2.51961         1.18238         0.00050
   C        1.17116         0.89446        -0.00566
   C        0.72688        -0.43698        -0.00737
   C        1.63643        -1.48227        -0.00372
   C        2.98912        -1.18454         0.00289
   C       -0.72687        -0.43712        -0.00868
   C       -1.17142         0.89423        -0.00712
   C       -0.00021         1.83338        -0.00958
   C       -2.51994         1.18188        -0.00251
   C       -3.42693         0.13084        -0.00012
   C       -2.98899        -1.18513        -0.00362
   C       -1.63623        -1.48259        -0.00801
   H        4.48651         0.34148         0.01126
   H        2.86741         2.20572         0.00242
   H        1.29880        -2.50811        -0.00536
   H        3.71355        -1.98619         0.00660
   H       -0.00073         2.48561         0.86749
   H        0.00018         2.47595        -0.89408
   H       -2.86794         2.20515         0.00016
   H       -4.48667         0.34062         0.00488
   H       -3.71324        -1.98694        -0.00233
   H       -1.29837        -2.50835        -0.01043
*
