23
 SCF done        -32.933693805065          0.000505580674
C           3.42680945656427    0.13151308232279    0.00531004785799
C           2.51961311195990    1.18237667057930    0.00050047918031
C           1.17116454667781    0.89445546566856   -0.00566422653264
C           0.72687801775963   -0.43698127305337   -0.00736542601759
C           1.63643349846276   -1.48226998532164   -0.00371989955581
C           2.98912322313651   -1.18453717286186    0.00289142787089
C          -0.72686966939081   -0.43712404731770   -0.00868181665295
C          -1.17142039453840    0.89422876372762   -0.00712207128409
C          -0.00021317593494    1.83337894017746   -0.00957774210952
C          -2.51994089290650    1.18188001217138   -0.00251031783752
C          -3.42693397873542    0.13083744686960   -0.00011820400251
C          -2.98898577656382   -1.18513388191658   -0.00361815358944
C          -1.63622674966682   -1.48258750368083   -0.00800915471667
H           4.48650504608478    0.34148397037856    0.01125888057053
H           2.86741075003082    2.20571825330385    0.00241984378859
H           1.29880144313221   -2.50810671619328   -0.00536197659620
H           3.71354572022723   -1.98619035181722    0.00660353638699
H          -0.00072930607245    2.48560901484741    0.86749358246301
H           0.00017510722572    2.47595007575568   -0.89408347768425
H          -2.86793560913102    2.20515274835293    0.00015949602724
H          -4.48666859754122    0.34061573395652    0.00488350554157
H          -3.71323587889654   -1.98693715170760   -0.00233453439291
H          -1.29836989188372   -2.50835209424157   -0.01043379871502
