# ORCA input file
# SCF done        -33.967649024401          0.000343045663
! B3LYP/G D3BJ Opt RIJCOSX def2-SVP def2/J
* xyz 0 1
   C        1.32541         1.23068         0.09861
   S        2.48287        -0.04380         0.07866
   C        1.25354        -1.28648        -0.05016
   C        0.01607        -0.69216        -0.07361
   C        0.06763         0.73010         0.01145
   C       -1.30878         1.25650        -0.02058
   O       -1.72172         2.38386         0.02720
   N       -2.09666         0.11626        -0.12403
   C       -1.39829        -1.08614        -0.16313
   O       -1.91828        -2.16910        -0.25277
   C        1.66788        -2.66198        -0.10725
   C        0.83416        -3.69544        -0.20554
   H        1.64475         2.25082         0.17236
   H       -3.10530         0.15398        -0.16913
   H        2.73885        -2.81487        -0.06288
   H       -0.23321        -3.56220        -0.25153
   H        1.20659        -4.70439        -0.24262
*
