# ORCA input file
# SCF done        -39.920216767934          0.000211653216
! B3LYP/G D3BJ Opt RIJCOSX def2-SVP def2/J
* xyz 0 1
   C        2.24290         1.17191         0.79475
   S        3.48484        -0.00767         0.63247
   C        2.32363        -1.21157         0.22948
   C        1.05570        -0.72495         0.22483
   C        1.00918         0.66028         0.54819
   C       -0.26881         1.43508         0.54568
   C       -1.48336         0.50429         0.65658
   O       -1.61518        -0.12980         1.91224
   C       -2.05403         0.70653         2.95172
   C       -1.36086        -0.61322        -0.39530
   O       -1.23438         0.02171        -1.65092
   C       -1.40568        -0.82352        -2.75953
   C       -0.18219        -1.52326        -0.02663
   H        2.50502         2.17791         1.05635
   H        2.65235        -2.21164         0.02708
   H       -0.36030         1.96839        -0.40394
   H       -0.27408         2.17332         1.34963
   H       -2.39277         1.09107         0.44402
   H       -2.24221         0.05593         3.80397
   H       -2.98041         1.22699         2.67824
   H       -1.29956         1.44977         3.23156
   H       -2.28459        -1.21588        -0.37976
   H       -1.43374        -0.17450        -3.63305
   H       -2.34657        -1.38350        -2.69028
   H       -0.57849        -1.53284        -2.87034
   H       -0.01031        -2.26876        -0.80507
   H       -0.46005        -2.04916         0.89034
*
