# ORCA input file
# SCF done        -39.788542125735          0.000611771482
! B3LYP/G D3BJ Opt RIJCOSX def2-SVP def2/J
* xyz 0 1
   C        1.48093        -1.32982         0.30285
   S        2.75180        -0.18405         0.31177
   C        1.62612         1.13567         0.15368
   C        0.33234         0.67020         0.11708
   C        0.25598        -0.74401         0.20182
   C       -1.03602        -1.50281         0.21964
   C       -2.20133        -0.62545        -0.25995
   C       -2.13243        -0.44025        -1.69155
   N       -2.07132        -0.28935        -2.82254
   C       -2.15120         0.75215         0.43940
   C       -2.16149         0.56550         1.87230
   N       -2.16505         0.40960         3.00424
   C       -0.89217         1.52548         0.01548
   C        2.17198         2.46862         0.10096
   C        1.57683         3.56914        -0.35064
   H        1.70498        -2.37541         0.37620
   H       -1.24517        -1.83189         1.24303
   H       -0.95553        -2.39569        -0.40572
   H       -3.15257        -1.12314        -0.03179
   H       -3.04149         1.33534         0.17158
   H       -0.77669         2.41426         0.64198
   H       -1.02457         1.85458        -1.02081
   H        3.19367         2.53445         0.45471
   H        0.58565         3.57779        -0.76557
   H        2.09395         4.51285        -0.33953
*
