25
 SCF done        -39.788542125735          0.000611771482
C           1.48093494318299   -1.32981907736565    0.30284846670597
S           2.75180079001907   -0.18405109766864    0.31177114086088
C           1.62611687904591    1.13567378154435    0.15367927037762
C           0.33234183547904    0.67019587578310    0.11708488190007
C           0.25597651655814   -0.74401072934281    0.20182146319558
C          -1.03602467804899   -1.50280537583378    0.21964366502893
C          -2.20132842644886   -0.62544683266173   -0.25994901484321
C          -2.13242526522744   -0.44024631868811   -1.69154514443602
N          -2.07131754140621   -0.28935344364351   -2.82253977594150
C          -2.15120333335605    0.75215395274056    0.43940465283891
C          -2.16149104448286    0.56549563513661    1.87229592126551
N          -2.16504813979460    0.40959964478802    3.00424021825811
C          -0.89216586866844    1.52548010016940    0.01547831369560
C           2.17198249733320    2.46862227392584    0.10095616427650
C           1.57683480198164    3.56913883847540   -0.35063552597624
H           1.70497510706504   -2.37540748548648    0.37620152365642
H          -1.24516563133090   -1.83189300989247    1.24302790265829
H          -0.95552603690619   -2.39568738972823   -0.40571584074495
H          -3.15257239588401   -1.12313523485113   -0.03178558398399
H          -3.04148522053189    1.33534469509143    0.17158097611576
H          -0.77669112838913    2.41425728396271    0.64198360459068
H          -1.02456532693630    1.85457666024663   -1.02081019862134
H           3.19366633784137    2.53444688674318    0.45470538775637
H           0.58565479867346    3.57779046850860   -0.76557212054319
H           2.09394553023224    4.51284989804673   -0.33953034809111
