# ORCA input file
# SCF done        -37.722796901292          0.000519804358
! B3LYP/G D3BJ Opt RIJCOSX def2-SVP def2/J
* xyz 0 1
   C       -1.48970         1.24022        -0.05692
   S       -2.64714        -0.00678        -0.10034
   C       -1.44872        -1.25213        -0.01957
   C       -0.17154        -0.69496         0.00352
   C       -0.20458         0.74708        -0.00541
   C        0.99853         1.48615         0.02976
   C        2.19593         0.82242         0.04261
   C        3.41148         1.54325         0.08669
   N        4.38801         2.14138         0.12715
   C        2.23402        -0.61154        -0.00905
   C        3.48606        -1.26587        -0.04772
   N        4.49105        -1.81618        -0.07813
   C        1.07721        -1.34865        -0.03109
   C       -1.88993        -2.62133         0.03015
   C       -1.23760        -3.63929         0.58666
   H       -1.79967         2.26586        -0.06724
   H        0.96627         2.56524         0.04064
   H        1.12981        -2.42322        -0.10304
   H       -2.87141        -2.79089        -0.39456
   H       -0.29303        -3.52214         1.08704
   H       -1.65390        -4.63109         0.57922
*
