# ORCA input file
# SCF done        -31.557651309974          0.000860064450
! B3LYP/G D3BJ Opt RIJCOSX def2-SVP def2/J
* xyz 0 1
   C        0.45466        -0.95832         0.51534
   C       -0.37608         0.15396         0.46453
   O       -0.03873         1.38147         0.94653
   C        1.23654         1.57395         1.52223
   C        1.33603         3.03377         1.93707
   C       -1.66361         0.04069        -0.10281
   C       -2.05947        -1.19275        -0.60809
   C       -1.22692        -2.29526        -0.55649
   C        0.02927        -2.17481         0.00752
   C       -2.52057         1.21943        -0.15937
   C       -3.84018         1.21611        -0.29804
   H        1.44002        -0.88961         0.94935
   H        2.02357         1.33354         0.79314
   H        1.35843         0.92245         2.39979
   H        1.21942         3.67559         1.06811
   H        2.30277         3.22334         2.39408
   H        0.55063         3.27049         2.64944
   H       -3.03289        -1.28168        -1.06543
   H       -1.55477        -3.24196        -0.95900
   H        0.69075        -3.02737         0.05360
   H       -1.99682         2.15954        -0.05297
   H       -4.41507         0.30762        -0.36892
   H       -4.40202         2.13390        -0.33378
*
