19
 SCF done        -33.668854741601          0.000834281239
C           1.67918717404691    1.17998851107188   -0.09513730062231
S           2.82031077140561   -0.09826440807076   -0.03805096981248
C           1.55992359649874   -1.26295968199314    0.07109846792036
C           0.32103602689557   -0.69617917912622    0.07014069636588
C           0.40671436628497    0.71654150206777   -0.02445989789849
S          -1.03237840511248    1.76839713057116   -0.11466741962710
O          -1.23648763175162    2.12525167722038   -1.49248429972684
O          -0.89573076782954    2.83631517342553    0.83729236422208
C          -2.36231281939191    0.63785363585325    0.39467339105556
C          -2.15348842878552   -0.65329472571594   -0.37017076764100
C          -0.96990668605841   -1.44617004254854    0.18288705002160
H           1.99723392368922    2.19934858402682   -0.17166554499580
H           1.80651117137876   -2.30441923584288    0.13135611762673
H          -3.29607554504664    1.12832983331875    0.13298030148959
H          -2.28964162786063    0.51874505058552    1.47185834096300
H          -1.97156083910024   -0.39719301236552   -1.41622711368642
H          -3.05266974093969   -1.27170376601297   -0.32156635044117
H          -0.87975053231605   -2.39681641465898   -0.34780440356856
H          -1.15463400600697   -1.68025063180603    1.23729733835542
