# ORCA input file
# SCF done        -46.168261342350          0.000992453437
! B3LYP/G D3BJ Opt RIJCOSX def2-SVP def2/J
* xyz 0 1
   C        0.89694        -0.20783         0.57718
   C        2.03247        -0.82914         0.06819
   O        3.27773        -0.26631         0.00799
   C        3.44101         1.04132         0.49561
   C        1.92334        -2.12585        -0.42524
   C        0.71493        -2.79513        -0.41475
   C       -0.42176        -2.17487         0.09504
   C       -0.31131        -0.87694         0.58740
   O       -1.66278        -2.73469         0.16024
   C       -1.84886        -4.03346        -0.35904
   C       -3.32502        -4.41178        -0.19573
   C       -4.23168        -3.42161        -0.94184
   C       -4.15136        -3.48059        -2.46320
   C       -3.52610        -5.87526        -0.60266
   C       -4.94375        -6.37618        -0.35320
   H        0.93750         0.79630         0.96859
   H        4.49323         1.28157         0.35003
   H        3.20055         1.10745         1.56203
   H        2.82740         1.75876        -0.05943
   H        2.80799        -2.60155        -0.81815
   H        0.67425        -3.79979        -0.80473
   H       -1.19551        -0.40085         0.98107
   H       -1.22437        -4.75215         0.19134
   H       -1.55964        -4.06817        -1.41776
   H       -3.55879        -4.31581         0.87092
   H       -3.95692        -2.41851        -0.61139
   H       -5.26384        -3.59676        -0.63421
   H       -3.13990        -3.29100        -2.81132
   H       -4.79931        -2.71981        -2.89223
   H       -4.47310        -4.44716        -2.84124
   H       -2.83047        -6.49000        -0.02544
   H       -3.27196        -6.00187        -1.65632
   H       -5.23004        -6.20521         0.68209
   H       -5.00448        -7.44357        -0.55369
   H       -5.65882        -5.87031        -0.99613
*
