# ORCA input file
# SCF done        -27.457845973500          0.000219830689
! B3LYP/G D3BJ Opt RIJCOSX def2-SVP def2/J
* xyz 0 1
   C       -2.31945         0.54039        -0.11462
   O       -1.89607        -0.74252        -0.20850
   C       -0.55819        -0.70378        -0.06546
   C        0.47689        -1.65214        -0.06134
   C        1.69634        -1.05161         0.12934
   S        1.57411         0.69625         0.30642
   C       -0.13386         0.61042         0.12038
   C       -1.29383         1.41615         0.08673
   C        2.97107        -1.71206         0.18734
   C        4.13919        -1.10417         0.37395
   H       -3.37466         0.70509        -0.20687
   H        0.34434        -2.71013        -0.18943
   H       -1.36150         2.47837         0.19413
   H        2.92588        -2.78671         0.06342
   H        4.20221        -0.03574         0.49917
   H        5.06319        -1.65321         0.40740
*
