# ORCA input file
# SCF done        -27.742899397622          0.000720017479
! B3LYP/G D3BJ Opt RIJCOSX def2-SVP def2/J
* xyz 0 1
   C        1.32209         0.44276        -0.25485
   C        2.49944         0.24869        -0.10905
   C        3.87065         0.01496         0.05944
   N        4.81227         0.97814        -0.15260
   C        6.05422         0.46344         0.09026
   C        5.89430        -0.86276         0.46587
   C        4.52650        -1.14282         0.44713
   C        7.21940         1.21781        -0.04631
   C        8.23345         1.86879        -0.16502
   C        9.41727         2.60865        -0.29814
   C        9.45952         3.87012        -0.72229
   H        0.29308         0.60200        -0.37756
   H        4.62231         1.92350        -0.44210
   H        6.68659        -1.53841         0.72138
   H        4.05640        -2.07657         0.68533
   H       10.32564         2.08118        -0.02964
   H        8.56530         4.40610        -0.99363
   H       10.39050         4.40270        -0.80930
*
