# ORCA input file
# SCF done        -33.963634891097          0.000961749732
! B3LYP/G D3BJ Opt RIJCOSX def2-SVP def2/J
* xyz 0 1
   C       -1.62641         1.17287         0.02213
   S       -2.76026        -0.09819        -0.00948
   C       -1.52766        -1.31408        -0.00735
   C       -0.26541        -0.72379        -0.01931
   C       -0.32844         0.71436         0.01732
   C        0.87355         1.48971         0.01877
   C        0.80129         2.94209         0.10714
   C        1.72007         3.78528        -0.34893
   C        2.06658         0.81569        -0.04879
   C        2.12498        -0.58768        -0.14326
   C        0.99577        -1.35167        -0.12997
   C       -1.94704        -2.68891         0.02290
   C       -1.25181        -3.72539         0.48674
   H       -1.98113         2.18352         0.04037
   H       -0.08807         3.33622         0.58119
   H        2.60672         3.44872        -0.85884
   H        1.61012         4.85059        -0.24078
   H        2.99306         1.36921        -0.02390
   H        3.09302        -1.06007        -0.22615
   H        1.05503        -2.42278        -0.22984
   H       -2.95907        -2.85259        -0.33085
   H       -0.27048        -3.62268         0.91445
   H       -1.66490        -4.71868         0.46988
*
