23
 SCF done        -33.963634891097          0.000961749732
C          -1.62641476632504    1.17286580771136    0.02212799891491
S          -2.76026300711458   -0.09818980450411   -0.00948404481989
C          -1.52765597034525   -1.31408235509792   -0.00734935850205
C          -0.26541137414024   -0.72379213777186   -0.01930631738360
C          -0.32843811644088    0.71436044971870    0.01731780385920
C           0.87355466160950    1.48971403815983    0.01876740074606
C           0.80128618454886    2.94209488584761    0.10713521521027
C           1.72007241719294    3.78527682564100   -0.34893134158303
C           2.06658450581295    0.81569348472200   -0.04878715313177
C           2.12498351563106   -0.58768298722250   -0.14326199150573
C           0.99577206597209   -1.35167476871405   -0.12996686886501
C          -1.94704466121708   -2.68891386370049    0.02290065782913
C          -1.25180784285936   -3.72539093529937    0.48674047725769
H          -1.98113321886802    2.18352342464347    0.04037265023230
H          -0.08806705882990    3.33622013543842    0.58119104884015
H           2.60671582304901    3.44871597250261   -0.85884043864377
H           1.61012366011505    4.85059311623610   -0.24077811928818
H           2.99305639253444    1.36921483733029   -0.02390116239412
H           3.09301625452464   -1.06007305322240   -0.22615028345772
H           1.05502749838057   -2.42278261525336   -0.22984015002717
H          -2.95906803496802   -2.85258682044215   -0.33084549794425
H          -0.27047624981676   -3.62268300681650    0.91445130579803
H          -1.66490267844602   -4.71868062990670    0.46987816885851
