20
 SCF done        -26.690341531616          0.000611339610
C           1.70146174277698    1.09174515705303   -0.07180235940001
S           2.09933064694815   -0.71813553636320   -0.00724299618713
C           0.29625168627593   -0.62289242211896   -0.38688203860236
C           0.26655140966875    0.73221243336636    0.29651954645541
N          -1.02791534647468    1.28653114663860   -0.05023086902919
C          -1.88423755513036    0.08880563185850    0.10112704401068
C          -0.99845816718564   -1.23153804236016    0.09653095307185
C          -1.58685164585475   -2.31762448917233   -0.74577619245200
C          -0.91353278695285   -3.04574459858041   -1.61654139254937
H           1.83286769132064    1.45719480921294   -1.08909002399865
H           2.25965214856724    1.69644381785384    0.63543908860486
H           0.25097667989528   -0.50644526566938   -1.47567592181808
H           0.24641234095814    0.57936073676969    1.38348413863090
H          -1.02653623231035    1.59554099486989   -1.01919705778935
H          -2.62682213836700    0.05521536084259   -0.69553479947534
H          -2.40613394004244    0.17562083660541    1.05593119615743
H          -0.90059484699375   -1.59308533653946    1.12545393417247
H          -2.64200301371117   -2.49439049781129   -0.57949593986096
H           0.14221257217747   -2.90526484503293   -1.78243338758931
H          -1.38716124556564   -3.82377989142288   -2.19027292235200
