# ORCA input file
# SCF done        -26.690341531616          0.000611339610
! B3LYP/G D3BJ Opt RIJCOSX def2-SVP def2/J
* xyz 0 1
   C        1.70146         1.09175        -0.07180
   S        2.09933        -0.71814        -0.00724
   C        0.29625        -0.62289        -0.38688
   C        0.26655         0.73221         0.29652
   N       -1.02792         1.28653        -0.05023
   C       -1.88424         0.08881         0.10113
   C       -0.99846        -1.23154         0.09653
   C       -1.58685        -2.31762        -0.74578
   C       -0.91353        -3.04574        -1.61654
   H        1.83287         1.45719        -1.08909
   H        2.25965         1.69644         0.63544
   H        0.25098        -0.50645        -1.47568
   H        0.24641         0.57936         1.38348
   H       -1.02654         1.59554        -1.01920
   H       -2.62682         0.05522        -0.69553
   H       -2.40613         0.17562         1.05593
   H       -0.90059        -1.59309         1.12545
   H       -2.64200        -2.49439        -0.57950
   H        0.14221        -2.90526        -1.78243
   H       -1.38716        -3.82378        -2.19027
*
