# ORCA input file
# SCF done        -29.855129509555          0.000821865475
! B3LYP/G D3BJ Opt RIJCOSX def2-SVP def2/J
* xyz 0 1
   C        0.69783         0.14314        -0.73392
   S        1.61824         1.41615        -1.49038
   C        2.55679         2.09922        -0.16760
   C        3.34776         3.18949        -0.35566
   S        4.16162         3.66624         1.08162
   C        3.42318         2.37991         1.95218
   C        2.59976         1.62779         1.17289
   S        1.74240         0.24703         1.84412
   C        0.70956        -0.33205         0.51583
   C       -0.13301        -1.42430         0.97848
   C       -1.01944        -2.11137         0.26641
   H        0.03118        -0.29214        -1.46200
   H        3.49366         3.73415        -1.26617
   H        3.63451         2.24058         2.99270
   H        0.01397        -1.67106         2.02325
   H       -1.21299        -1.91965        -0.77477
   H       -1.58863        -2.90534         0.71640
*
