17
 SCF done        -29.855129509555          0.000821865475
C           0.69783289718627    0.14314195195227   -0.73391742212738
S           1.61824454468486    1.41615152529604   -1.49037699635484
C           2.55678582577522    2.09922157421566   -0.16760486667979
C           3.34776067725982    3.18948975301161   -0.35566040336643
S           4.16161941702179    3.66623825729967    1.08162412088262
C           3.42318033674945    2.37991344982761    1.95218267010740
C           2.59975654461486    1.62779277882263    1.17288688658569
S           1.74239985133763    0.24703124910517    1.84412450610213
C           0.70955768050862   -0.33204576279957    0.51582614106185
C          -0.13301048294807   -1.42430374449419    0.97847833335993
C          -1.01944060706361   -2.11136738942346    0.26641110221984
H           0.03118080706168   -0.29213602154163   -1.46199622049403
H           3.49366497445174    3.73415408141820   -1.26617365213248
H           3.63451415696152    2.24057730403527    2.99270444773371
H           0.01397333735333   -1.67106251218855    2.02324790861916
H          -1.21298992429924   -1.91965081557427   -0.77477208470112
H          -1.58863003665587   -2.90533567896259    0.71639552918376
