13
 SCF done        -19.088465419973          0.000726674173
C          -1.25857037021870   -0.09262460044512    0.00008569485560
C          -0.34308673655823    0.97288132926478    0.04215448674009
C           0.02127911806879    2.43947301412476    0.09353116840978
C           1.51334654555394    1.98093852813897    0.08918276653862
C           0.96168678333019    0.58464152668733    0.03802935454838
S           1.15249995346294   -1.11669328841834   -0.01757911759755
C          -0.57799926585973   -1.27544656687762   -0.03486041345019
H          -2.33111913891990   -0.02255631797350   -0.00489149080227
H          -0.28858792320290    2.95693976430135    0.99907418242706
H          -0.27530894478319    3.01508377854897   -0.78088117092248
H           2.07060936401602    2.22601342760105    0.99188288840734
H           2.08475710632820    2.28648135516081   -0.78576988473796
H          -0.98723649121745   -2.26563195011342   -0.07089846441641
