# ORCA input file
# SCF done        -19.088465419973          0.000726674173
! B3LYP/G D3BJ Opt RIJCOSX def2-SVP def2/J
* xyz 0 1
   C       -1.25857        -0.09262         0.00009
   C       -0.34309         0.97288         0.04215
   C        0.02128         2.43947         0.09353
   C        1.51335         1.98094         0.08918
   C        0.96169         0.58464         0.03803
   S        1.15250        -1.11669        -0.01758
   C       -0.57800        -1.27545        -0.03486
   H       -2.33112        -0.02256        -0.00489
   H       -0.28859         2.95694         0.99907
   H       -0.27531         3.01508        -0.78088
   H        2.07061         2.22601         0.99188
   H        2.08476         2.28648        -0.78577
   H       -0.98724        -2.26563        -0.07090
*
