15
 SCF done        -20.985022961362          0.000596125778
C          -1.13782453132300   -0.02654057122523    0.00193382718736
O          -0.37516671453795    1.08182499835183   -0.00383356471633
C           0.90563679036244    0.66973555689207   -0.00753764196155
C           0.98311857691800   -0.68985067345591   -0.00403191811505
C          -0.36913360620678   -1.15158276238531    0.00237362324572
C          -0.83306040487246   -2.56856802262253    0.00803402401808
C           2.21362280083177   -1.52865835584411   -0.00636069328555
H          -2.20129289685153    0.10929863564872    0.00546518765773
H           1.66542913919803    1.42607418273269   -0.01238289540096
H           0.01674025805567   -3.24487351256344    0.00942314485831
H          -1.44159765481360   -2.77492108531360   -0.87117116748094
H          -1.43966072727163   -2.76860232282006    0.89002013303054
H           3.09741580910632   -0.89652905518035   -0.00900731834545
H           2.23807857645850   -2.16811629055811   -0.88802837570498
H           2.24235458494622   -2.16675072165665    0.87613363501306
