# ORCA input file
# SCF done        -22.174629056380          0.000255009557
! B3LYP/G D3BJ Opt RIJCOSX def2-SVP def2/J
* xyz 0 1
   C       -2.29789         0.50023        -0.00289
   O       -1.86225        -0.78200         0.00136
   C       -0.51867        -0.71815        -0.00032
   C        0.53604        -1.65524         0.00160
   C        1.73315        -1.01290        -0.00091
   S        1.61705         0.71994        -0.00760
   C       -0.10162         0.60945        -0.00525
   C       -1.27398         1.39975        -0.00666
   H       -3.36006         0.64543        -0.00273
   H        0.41553        -2.72199         0.00526
   H        2.70993        -1.45395         0.00049
   H       -1.34890         2.46691        -0.01029
*
