# ORCA input file
# SCF done        -28.684124695299          0.000811017668
! B3LYP/G D3BJ Opt RIJCOSX def2-SVP def2/J
* xyz 0 1
   C       -1.51667        -1.26020         0.04959
   S       -2.73272        -0.06292         0.10691
   C       -1.58564         1.20447         0.11783
   C       -0.29753         0.72882         0.08018
   C       -0.25460        -0.70987         0.03938
   C        0.99413        -1.36823        -0.00637
   C        2.16094        -0.64632        -0.00459
   C        3.43025        -1.35856        -0.04811
   C        4.64704        -0.83495         0.04524
   C        2.10056         0.78072         0.03634
   C        0.92239         1.45163         0.07589
   H       -1.78885        -2.29639         0.02702
   H       -1.91718         2.22284         0.15177
   H        1.01315        -2.44851        -0.03897
   H        3.33381        -2.43183        -0.16073
   H        4.82557         0.21877         0.16872
   H        5.52532        -1.45613         0.00332
   H        3.02493         1.33576         0.02809
   H        0.89210         2.53094         0.10321
*
