19
 SCF done        -28.684124695299          0.000811017668
C          -1.51667306660599   -1.26020137866634    0.04959229920152
S          -2.73271565699952   -0.06291786928198    0.10691310780243
C          -1.58564325822907    1.20446579370176    0.11782755956678
C          -0.29753131347040    0.72882100153179    0.08017673452452
C          -0.25459702284028   -0.70986826981338    0.03937963991918
C           0.99412518976176   -1.36823446362183   -0.00636714804333
C           2.16093851481672   -0.64632369830090   -0.00459209214108
C           3.43024794682209   -1.35856398316482   -0.04811269665971
C           4.64703796221312   -0.83494672741180    0.04523603287435
C           2.10056252899207    0.78072205841936    0.03633983280762
C           0.92239111278574    1.45162606795492    0.07589089655968
H          -1.78885449390369   -2.29638558244728    0.02702323997313
H          -1.91717522801301    2.22284071678434    0.15177055192515
H           1.01314625234195   -2.44850751564251   -0.03897374805392
H           3.33380993185555   -2.43182963934031   -0.16072957475554
H           4.82557435848362    0.21877026932651    0.16871670590809
H           5.52531587635487   -1.45613119524724    0.00332396935090
H           3.02493341235562    1.33576163525154    0.02808650038883
H           0.89209695327899    2.53094277996819    0.10320818885160
