# ORCA input file
# SCF done        -32.757109815497          0.000727196575
! B3LYP/G D3BJ Opt RIJCOSX def2-SVP def2/J
* xyz 0 1
   C       -1.42096        -1.27747         0.15373
   S       -2.64984        -0.09447         0.28424
   C       -1.52127         1.18267         0.21432
   C       -0.23164         0.72218         0.09103
   C       -0.17103        -0.71549         0.04946
   C        1.08805        -1.38272        -0.06038
   C        2.21973        -0.59969        -0.14355
   C        2.14843         0.82067        -0.10901
   C        0.96602         1.47412         0.00860
   O        3.46656        -1.11019        -0.31026
   C        1.11922        -2.84251        -0.13130
   C        1.99769        -3.63328         0.47630
   H       -1.69211        -2.31343         0.16829
   H       -1.85773         2.19831         0.27075
   H        3.08344         1.35296        -0.18510
   H        0.91934         2.55180         0.03634
   H        3.40864        -2.07056        -0.41178
   H        0.33416        -3.28576        -0.73180
   H        2.75233        -3.25766         1.14911
   H        1.95834        -4.70389         0.36653
*
