20
 SCF done        -32.757109815497          0.000727196575
C          -1.42096498883880   -1.27747274245582    0.15372751076302
S          -2.64984280732848   -0.09446697762001    0.28424137681172
C          -1.52126614582489    1.18267359549142    0.21431826267577
C          -0.23163974622150    0.72218052302748    0.09103325299803
C          -0.17103010936342   -0.71549196175912    0.04945770848666
C           1.08804852444310   -1.38272284532371   -0.06037574469643
C           2.21973141969745   -0.59969326027551   -0.14354651737769
C           2.14843358093558    0.82067340543257   -0.10901250406796
C           0.96601624737292    1.47412436653709    0.00859974100647
O           3.46656389317722   -1.11018940225015   -0.31025765068207
C           1.11921787243887   -2.84250773974966   -0.13129887457378
C           1.99768897540134   -3.63328379900609    0.47629556302176
H          -1.69211440671382   -2.31342673813923    0.16828804311762
H          -1.85773214606966    2.19830545744405    0.27074689580754
H           3.08344030369074    1.35295655189505   -0.18510399856697
H           0.91934347236327    2.55180455343583    0.03634341552533
H           3.40864366065220   -2.07055666652196   -0.41178236725944
H           0.33416030102719   -3.28576450622578   -0.73180427086109
H           2.75233324254568   -3.25766052191999    1.14911342061238
H           1.95833885661506   -4.70389129201643    0.36652673725907
