# ORCA input file
# SCF done        -23.249074412456          0.000150744530
! B3LYP/G D3BJ Opt RIJCOSX def2-SVP def2/J
* xyz 0 1
   C        1.37699         0.09959         0.64619
   S        0.86767         1.63961         0.87812
   C        2.70896        -0.23739         0.34474
   C        3.13542        -1.51500         0.15155
   S        4.79218        -1.96630        -0.22591
   C        4.29525        -3.64098        -0.26215
   C        2.99049        -3.74911        -0.00329
   O        2.33191        -2.59417         0.22728
   H        0.65823        -0.70976         0.72657
   H        3.43340         0.55752         0.26165
   H        4.99990        -4.41700        -0.47087
   H        2.38836        -4.63766         0.04689
*
