11
 SCF done        -21.633674133195          0.000768066625
C           2.16818710898835    0.48698215317415   -0.00101967066230
S           1.69160989429657   -1.17907449306136   -0.00535057706980
C           0.03697513328552   -0.70717692435443   -0.00130076354000
N          -1.10298461800593   -1.42429585221777   -0.00120052793709
C          -2.11864889990213   -0.64182958330571    0.00198216857515
S          -1.78081956474615    1.07720247128599    0.00554811706728
C          -0.10108549465940    0.68081100009854    0.00207150786623
C           1.13048943885285    1.36362959571556    0.00153137226252
H           3.21512280604954    0.71745781041332   -0.00117234113525
H          -3.13189473273911   -0.98949561528544    0.00162641569106
H           1.23600892857989    2.43247943753714    0.00369429888221
