13
 SCF done        -29.484842459359          0.000656435562
C          -1.29296052031033    1.14930281895572    0.00116267644193
C          -0.00322487909514    0.72066615436488   -0.00027315570096
C          -0.01592993972421   -0.72855959897203   -0.00126115287390
C          -1.41257607289074   -1.15818595502843    0.00124790309878
O          -1.93468856205013   -2.24216630309545    0.00102104042058
N          -2.11690933202348    0.06135203049211    0.00154046148467
C           1.27377943278069   -1.12827006408443   -0.00247516500814
O           2.11674495757671   -0.07832108040780   -0.00162168846269
C           1.38692356977437    1.12774402861337   -0.00140317482155
O           1.92990324439187    2.19282399257276   -0.00089873422884
H          -1.68701172341590    2.14865063723605    0.00176646787014
H          -3.12472294128440    0.10159957223177    0.00211174018387
H           1.72336276627069   -2.10464623287849   -0.00270721840390
