16
 SCF done        -34.070836709014          0.000429070890
C           1.32809863952985   -1.25185546743219    0.03761874465042
S           1.74667268974585    0.39497704149928   -0.01697268775017
C           0.07768998322645    0.88899262613454   -0.12118407508712
C          -0.75945010226961   -0.21167396760893   -0.11145594346258
C          -0.02640520838941   -1.43302908110727   -0.02000461200011
N          -0.62601137438355   -2.72862329956909    0.01058472758709
O           0.12787854299016   -3.67697309790828    0.08839768845286
O          -1.83324728597009   -2.79348488892134   -0.04197228778320
C          -2.16554447797561   -0.15239530023704   -0.18251897194101
N          -3.30663744148816   -0.06386862766483   -0.24206568546246
C          -0.20045234744817    2.29976985359525   -0.20049387087251
C          -1.40351412071758    2.86201791427437   -0.29385766898102
H           2.07020690882662   -2.02297566643582    0.10891554750618
H           0.68601214234195    2.92171090421530   -0.18050669182407
H          -2.31216443769552    2.28799465591809   -0.31792525085420
H          -1.50379211032340    3.93178640124838   -0.34903896217814
