36
 SCF done        -49.205230632952          0.000503726787
C          -1.99415718599976   -0.25457276533840   -0.03564890392753
C          -0.92078770290099   -1.08655323947194   -0.06062870027542
C           0.39253699403183   -0.54205927333439   -0.03844778454992
C           1.64526171737562   -1.12859131321906   -0.05253736160857
C           2.04737591257715   -2.57018535312933   -0.05267129512516
C           2.05835030063541   -3.12545714177174    1.38755228016480
N           0.71238599447863   -3.20808401229215    1.92713436605543
C           1.20205683646545   -3.45370107113836   -0.98152412744882
N           2.01900548005692   -4.55911965631409   -1.46860613037496
C           2.60961602534714   -0.05183959449668   -0.01105580931042
C           3.95505365393658   -0.06042456709644   -0.01326642043785
C           4.73896275726286    1.19754277348672    0.02435386009360
C           3.93275161908461    2.44926028112369    0.08289906772720
C           2.58601932538059    2.44364747260466    0.08094702179400
C           1.87679872259805    1.22169466753141    0.02996612705620
C           0.53154498282017    0.91119554858138    0.00953235380135
C          -0.61788837527133    1.73430757309461    0.03192875178565
C          -1.84854688697172    1.15925300995187    0.00938514860714
H          -2.99447038757190   -0.66400166407829   -0.05014049821417
H          -1.05774330976919   -2.15550896783332   -0.08900028643492
H           3.07533082172276   -2.63144019003523   -0.42583705847933
H           2.73091928941792   -2.49145801048739    1.99240549355025
H           2.47383556062438   -4.13819048274064    1.38124005062295
H           0.29316794645696   -2.28374824628712    1.94197313052406
H           0.73633196340957   -3.55371921472604    2.88019825798424
H           0.89240028496224   -2.86812060614829   -1.85096021145781
H           0.30685722915684   -3.79011172778520   -0.44168018158715
H           2.27059257548379   -5.16457441943347   -0.69391575620654
H           1.48775923068224   -5.11888429382469   -2.12733255394451
H           4.52093275954527   -0.98228236989600   -0.04980220171157
H           5.42617025586346    1.16174372992419    0.88044906696631
H           5.39202833305037    1.22531292698494   -0.85876492509009
H           4.48854778839959    3.37404860134567    0.12416264468572
H           2.03136072780857    3.37035257164311    0.12007932651945
H          -0.50151345476795    2.80801274471116    0.06747701094367
H          -2.74027778538219    1.76935627989485    0.02653624730218
