# ORCA input file
# SCF done        -25.971349874046          0.000656337705
! B3LYP/G D3BJ Opt RIJCOSX def2-SVP def2/J
* xyz 0 1
   N        1.13050         0.50846         0.01590
   C        2.52558         0.41543         0.01888
   C        3.39289         1.46075         0.00466
   S        5.03587         0.95015         0.09588
   C        4.55494        -0.70452         0.15030
   C        3.20059        -0.85096         0.11273
   N        2.48017        -2.02622         0.15222
   C        2.99711        -3.29667         0.14579
   C        2.27748        -4.39150         0.36821
   H        0.80868         1.45422        -0.13706
   H        0.68799        -0.13033        -0.63302
   H        3.16530         2.50658        -0.04483
   H        5.31112        -1.45805         0.22307
   H        1.50348        -1.93379         0.39212
   H        4.04915        -3.35139        -0.08984
   H        1.22761        -4.34196         0.60298
   H        2.72071        -5.36709         0.31946
*
