17
 SCF done        -25.971349874046          0.000656337705
N           1.13049569595907    0.50845503350326    0.01589945921178
C           2.52558073546463    0.41542918426418    0.01888025229239
C           3.39288837191312    1.46075146216998    0.00465861384804
S           5.03587329546989    0.95014857779798    0.09587610100551
C           4.55493708352712   -0.70452170419123    0.15029925634051
C           3.20058680685528   -0.85095746051213    0.11273482210020
N           2.48016849380700   -2.02621708278086    0.15221521100587
C           2.99711104180917   -3.29666615034738    0.14578568897224
C           2.27748219652191   -4.39150171236959    0.36820551453814
H           0.80867578284222    1.45422324421624   -0.13705675000300
H           0.68799162662449   -0.13033210546877   -0.63302188369844
H           3.16530010258762    2.50657672328318   -0.04482536578145
H           5.31111793599390   -1.45804782178172    0.22306999478004
H           1.50347690867838   -1.93379197296261    0.39212466067447
H           4.04914718884312   -3.35138534234392   -0.08984113800436
H           1.22760977057916   -4.34196091697944    0.60298107917356
H           2.72070696252393   -5.36709195549713    0.31946448354445
