# ORCA input file
# SCF done        -36.070470588040          0.000608135870
! B3LYP/G D3BJ Opt RIJCOSX def2-SVP def2/J
* xyz 0 1
   C       -1.51407        -1.15452         0.59765
   S       -2.70310         0.07212         0.54777
   C       -1.56121         1.25878         0.09116
   C       -0.29639         0.73289        -0.02122
   C       -0.26654        -0.67335         0.27523
   C        0.95783        -1.38468         0.20913
   C        2.11069        -0.74533        -0.13958
   C        3.45206        -1.45276        -0.24744
   C        3.93007        -1.38428        -1.70501
   C        4.47120        -0.76095         0.66927
   C        3.37371        -2.92618         0.16186
   C        2.06141         0.65036        -0.43598
   C        0.91439         1.37392        -0.37927
   H       -1.79339        -2.15575         0.85824
   H       -1.87791         2.26978        -0.06931
   H        0.93204        -2.43648         0.44261
   H        4.04318        -0.35621        -2.03813
   H        3.21213        -1.87641        -2.35819
   H        4.89072        -1.88461        -1.80871
   H        4.64581         0.26913         0.37187
   H        5.42229        -1.28801         0.63258
   H        4.11413        -0.76402         1.69708
   H        2.69436        -3.47785        -0.48349
   H        3.04586        -3.02700         1.19409
   H        4.35940        -3.37914         0.07489
   H        2.97440         1.15268        -0.71687
   H        0.90678         2.43091        -0.60132
*
