27
 SCF done        -36.070470588040          0.000608135870
C          -1.51406615602678   -1.15452497131892    0.59765237461369
S          -2.70309850174560    0.07211896658710    0.54776965132844
C          -1.56120693272456    1.25878414490337    0.09116468581641
C          -0.29638975046981    0.73288902822739   -0.02121934092129
C          -0.26653600107652   -0.67335101848887    0.27522735407232
C           0.95782570800607   -1.38467704767113    0.20912638148240
C           2.11069435445134   -0.74532569399521   -0.13958223450535
C           3.45206177598970   -1.45276225797761   -0.24744285659220
C           3.93006765205848   -1.38428388438460   -1.70501438948257
C           4.47119898935496   -0.76095275770099    0.66926884986393
C           3.37371272414649   -2.92618093475130    0.16185501950669
C           2.06141420697946    0.65035887446886   -0.43598321884695
C           0.91438795651795    1.37391730797232   -0.37926919685922
H          -1.79338713583159   -2.15574712826213    0.85823744211340
H          -1.87791111766069    2.26977874997466   -0.06931382812027
H           0.93204424994572   -2.43648031812210    0.44260886167778
H           4.04318027825328   -0.35621415294036   -2.03813136324546
H           3.21213378346288   -1.87641349314240   -2.35818962512706
H           4.89072356952318   -1.88460519392827   -1.80870802390652
H           4.64581207279393    0.26913443083658    0.37187106567087
H           5.42229450722192   -1.28801247517632    0.63257712922307
H           4.11412523134366   -0.76401977358181    1.69708396288192
H           2.69436250880060   -3.47785010235228   -0.48348871048894
H           3.04585785125916   -3.02700356057499    1.19409223408145
H           4.35940321121324   -3.37913815313577    0.07488613642353
H           2.97440321330419    1.15268320815534   -0.71687187288744
H           0.90678175090925    2.43090820637957   -0.60131648777253
