21
 SCF done        -30.138538623316          0.000579187037
C           1.55408903505561   -0.77301993525570   -2.49320499099803
N           2.81714536385818   -0.72343902524455   -2.44901663026113
N           3.45016786467184   -0.75101243301851   -1.28459041022305
C           4.82478608638101   -0.68598459289276   -1.19419369467267
C           5.62082192564295   -0.61292648797009   -2.33697209551824
C           6.99084548966983   -0.54765961095770   -2.21554397740052
C           7.61740290703193   -0.54698547732925   -0.96566018530728
C           6.80667254197514   -0.62689685861275    0.16873875949668
C           5.43513093005322   -0.69610091256914    0.06035765176010
C           9.06890972587581   -0.46580632048356   -0.90128647670867
C           9.81295080053750   -0.32751187128941    0.19034174133852
H           1.08714002622909   -0.74784731925228   -3.45970381109209
H           0.91649301919422   -0.83894913317454   -1.60899561029867
H           2.91537084087093   -0.80633373836876   -0.41507555337482
H           5.14262180606346   -0.60920171815596   -3.30314686102597
H           7.59746508130454   -0.49097726905397   -3.10838289674330
H           7.25450216612299   -0.64099892503253    1.15015910688785
H           4.82369331884858   -0.75918869429749    0.95037298744087
H           9.56230110144772   -0.51264812825356   -1.86499134692327
H           9.39206432791808   -0.25891610672413    1.17888272430647
H          10.88630564124735   -0.27021544206338    0.13227156931721
