# ORCA input file
# SCF done        -30.138538623316          0.000579187037
! B3LYP/G D3BJ Opt RIJCOSX def2-SVP def2/J
* xyz 0 1
   C        1.55409        -0.77302        -2.49320
   N        2.81715        -0.72344        -2.44902
   N        3.45017        -0.75101        -1.28459
   C        4.82479        -0.68598        -1.19419
   C        5.62082        -0.61293        -2.33697
   C        6.99085        -0.54766        -2.21554
   C        7.61740        -0.54699        -0.96566
   C        6.80667        -0.62690         0.16874
   C        5.43513        -0.69610         0.06036
   C        9.06891        -0.46581        -0.90129
   C        9.81295        -0.32751         0.19034
   H        1.08714        -0.74785        -3.45970
   H        0.91649        -0.83895        -1.60900
   H        2.91537        -0.80633        -0.41508
   H        5.14262        -0.60920        -3.30315
   H        7.59747        -0.49098        -3.10838
   H        7.25450        -0.64100         1.15016
   H        4.82369        -0.75919         0.95037
   H        9.56230        -0.51265        -1.86499
   H        9.39206        -0.25892         1.17888
   H       10.88631        -0.27022         0.13227
*
