15
 SCF done        -21.429587599437          0.000311013228
C           0.66686237885754    1.25145817829737    0.07296252135197
C           1.41878283214727    0.09162866052341    0.04102326457555
C           0.77791688720808   -1.14552451566760   -0.05648794439506
C          -0.61984208600616   -1.12439978706898   -0.09353074475912
N          -1.34123232665169   -0.02177605912285   -0.06305197374788
C          -0.71449077904608    1.14069536972096    0.01171999702987
C           1.56476373111390   -2.37075939945848   -0.10491239454025
C           1.11950319356369   -3.57083073847703   -0.45548837380720
H           1.13962105158236    2.21915678099076    0.14376532813664
H           2.49891716636044    0.13565413479908    0.08353227217779
H          -1.18865718308041   -2.04319383509866   -0.13856889939728
H          -1.35077440866822    2.01570833271335    0.02807623873520
H           2.60915858217962   -2.24682496662862    0.15630375316525
H           0.09839974216252   -3.74721969536895   -0.74691681910016
H           1.77198121827715   -4.42694246015378   -0.47247622542530
