# ORCA input file
# SCF done        -21.429587599437          0.000311013228
! B3LYP/G D3BJ Opt RIJCOSX def2-SVP def2/J
* xyz 0 1
   C        0.66686         1.25146         0.07296
   C        1.41878         0.09163         0.04102
   C        0.77792        -1.14552        -0.05649
   C       -0.61984        -1.12440        -0.09353
   N       -1.34123        -0.02178        -0.06305
   C       -0.71449         1.14070         0.01172
   C        1.56476        -2.37076        -0.10491
   C        1.11950        -3.57083        -0.45549
   H        1.13962         2.21916         0.14377
   H        2.49892         0.13565         0.08353
   H       -1.18866        -2.04319        -0.13857
   H       -1.35077         2.01571         0.02808
   H        2.60916        -2.24682         0.15630
   H        0.09840        -3.74722        -0.74692
   H        1.77198        -4.42694        -0.47248
*
