13
 SCF done        -29.501607907803          0.000499127255
C          -1.32504455036709   -1.09153975794146    0.00065665375514
O          -2.10378926145052    0.00575811748416    0.00093096618300
C          -0.01848073363569   -0.71473224537207    0.00036501739843
C           1.37667056129803   -1.18546220897306   -0.00024993932474
O           1.83980283169719   -2.29215688730052   -0.00050843529558
N           2.11792512089092   -0.00563094873323   -0.00039243561043
C           1.38307281584008    1.17819040683795    0.00019069048312
O           1.85218499541798    2.28235587277113    0.00034259307342
C          -0.01463126311969    0.71502564883605    0.00064997846724
C          -1.31914417029783    1.09884185342999    0.00113010927531
H          -1.81103649867306   -2.04681776114854    0.00060105927071
H           3.12863513081486   -0.00840630824255   -0.00066707282652
H          -1.80000497841518    2.05671421835214    0.00149081515091
