19
 SCF done        -43.774120642025          0.000765273691
C          -1.59639040797988   -1.15531862049238    0.15799743758991
S          -2.73152422204644    0.11132211650420    0.24025366581373
C          -1.52532339902339    1.30904568829602    0.15527083536398
C          -0.26912916806721    0.75812264291803    0.06500697286931
C          -0.30302766228259   -0.68623625202091    0.06631229856004
C           0.93340499730597   -1.38206084675974   -0.02270294200803
C           1.04293487684738   -2.88122638436031   -0.03242070967202
F          -0.11718972446794   -3.54146515739180    0.05467165675268
F           1.64033645713949   -3.32348771635001   -1.15586497980895
F           1.80236838522546   -3.32554047312989    0.98752852795347
C           2.11186482491091   -0.68657918740327   -0.10652417281868
C           2.14248831412328    0.71939704434925   -0.10769595852978
C           0.97831095386966    1.44152153227655   -0.02406112673280
C           0.99303903309506    2.85368054769827   -0.02555197175038
N           0.99849856652552    3.99989555467086   -0.02137225318326
H          -1.94233694910835   -2.16763101486713    0.18157940807253
H          -1.78281204130777    2.34908809846647    0.17462138107105
H           3.04311975928868   -1.22862930338711   -0.17370093938118
H           3.09136740595217    1.22847173098289   -0.17521713016163
