# ORCA input file
# SCF done        -43.774120642025          0.000765273691
! B3LYP/G D3BJ Opt RIJCOSX def2-SVP def2/J
* xyz 0 1
   C       -1.59639        -1.15532         0.15800
   S       -2.73152         0.11132         0.24025
   C       -1.52532         1.30905         0.15527
   C       -0.26913         0.75812         0.06501
   C       -0.30303        -0.68624         0.06631
   C        0.93340        -1.38206        -0.02270
   C        1.04293        -2.88123        -0.03242
   F       -0.11719        -3.54147         0.05467
   F        1.64034        -3.32349        -1.15586
   F        1.80237        -3.32554         0.98753
   C        2.11186        -0.68658        -0.10652
   C        2.14249         0.71940        -0.10770
   C        0.97831         1.44152        -0.02406
   C        0.99304         2.85368        -0.02555
   N        0.99850         3.99990        -0.02137
   H       -1.94234        -2.16763         0.18158
   H       -1.78281         2.34909         0.17462
   H        3.04312        -1.22863        -0.17370
   H        3.09137         1.22847        -0.17522
*
