14
 SCF done        -23.186062893443          0.000487992356
C           1.43525157377248    0.67284831312847    0.01125375760661
C           0.18730558321607    1.24732447087385    0.00057806933686
C          -0.25245584943282    2.63728565112238   -0.00468028089466
O          -1.43479176603124    2.91269807381156    0.00377181552025
C           0.80937637702042    3.71162293994633   -0.01909473398573
S          -1.05790113929651    0.03400242616361   -0.00453202773265
C           0.11354526444629   -1.20896631175458    0.00590236869296
C           1.39053068994375   -0.72983118194987    0.01477031833311
H           2.35670478509971    1.22631123646037    0.01893250532759
H           1.81511916243579    3.31479255842587   -0.08820829119553
H           0.71239165535964    4.30329230481646    0.88948830684456
H           0.61844508812818    4.37531502099170   -0.86041571511271
H          -0.20098166442699   -2.23413781609499    0.00489120862928
H           2.26423023976522   -1.35670768594114    0.02250269863006
