# ORCA input file
# SCF done        -23.186062893443          0.000487992356
! B3LYP/G D3BJ Opt RIJCOSX def2-SVP def2/J
* xyz 0 1
   C        1.43525         0.67285         0.01125
   C        0.18731         1.24732         0.00058
   C       -0.25246         2.63729        -0.00468
   O       -1.43479         2.91270         0.00377
   C        0.80938         3.71162        -0.01909
   S       -1.05790         0.03400        -0.00453
   C        0.11355        -1.20897         0.00590
   C        1.39053        -0.72983         0.01477
   H        2.35670         1.22631         0.01893
   H        1.81512         3.31479        -0.08821
   H        0.71239         4.30329         0.88949
   H        0.61845         4.37532        -0.86042
   H       -0.20098        -2.23414         0.00489
   H        2.26423        -1.35671         0.02250
*
