# ORCA input file
# SCF done        -37.136804660770          0.000702184406
! B3LYP/G D3BJ Opt RIJCOSX def2-SVP def2/J
* xyz 0 1
   C       -1.17856         1.26499        -0.29834
   S       -2.48847         0.17385        -0.27189
   C       -1.45056        -1.19844        -0.05205
   C       -0.11936        -0.79366        -0.00380
   C        0.03264         0.62580        -0.14856
   C        1.32452         1.19448        -0.12495
   C        2.43019         0.40285         0.03577
   C        3.76540         0.99976         0.06512
   C        4.13403         2.05167        -0.65367
   C        2.28005        -1.01573         0.18809
   C        3.49609        -1.87710         0.35173
   C        1.03980        -1.58360         0.16295
   C       -1.97072        -2.52809         0.05157
   C       -3.26025        -2.85730        -0.01025
   H       -1.36089         2.31346        -0.42523
   H        1.42440         2.26566        -0.21491
   H        4.48462         0.52825         0.72109
   H        3.46435         2.53375        -1.34607
   H        5.12785         2.46103        -0.58899
   H        4.20872        -1.69273        -0.45098
   H        3.22222        -2.92931         0.33968
   H        3.99275        -1.66606         1.29917
   H        0.93691        -2.65372         0.27002
   H       -1.22548        -3.30044         0.18964
   H       -4.02569        -2.11129        -0.14711
   H       -3.58682        -3.87826         0.07426
*
