# ORCA input file
# SCF done        -27.548951891401          0.000875427125
! B3LYP/G D3BJ Opt RIJCOSX def2-SVP def2/J
* xyz 0 1
   C        2.26209        -0.15042        -0.17650
   C        3.12861        -1.15003        -0.31072
   C        0.83055        -0.29144        -0.11572
   S       -0.15964         1.13560         0.03769
   C       -1.60895         0.19927         0.03789
   C       -2.93043         0.87567         0.15342
   C       -1.34299        -1.14763        -0.07061
   C        0.04855        -1.40962        -0.15775
   C       -2.38723        -2.15448        -0.09114
   C       -2.19456        -3.46839        -0.10713
   H        2.62323         0.86798        -0.10496
   H        2.81310        -2.17585        -0.38785
   H        4.18837        -0.97004        -0.34695
   H       -2.79530         1.95106         0.23704
   H       -3.46800         0.52426         1.03454
   H       -3.54645         0.67168        -0.72318
   H        0.45542        -2.39878        -0.25342
   H       -3.39782        -1.76807        -0.08908
   H       -1.21344        -3.91056        -0.10327
   H       -3.02325        -4.15523        -0.12180
*
