20
 SCF done        -27.548951891401          0.000875427125
C           2.26209312297654   -0.15042029262257   -0.17649817141536
C           3.12861135769596   -1.15002791791363   -0.31072132579189
C           0.83054783007345   -0.29144224578175   -0.11571621668222
S          -0.15963706802913    1.13560439507909    0.03769154139340
C          -1.60894717322082    0.19927000545171    0.03789316397099
C          -2.93042798484155    0.87567145226344    0.15341950773380
C          -1.34298512302082   -1.14763421699832   -0.07060780230530
C           0.04854526505585   -1.40961804576964   -0.15774736962700
C          -2.38723288922767   -2.15448150535622   -0.09113766947106
C          -2.19455533741349   -3.46839133737296   -0.10712781862396
H           2.62322913274373    0.86798199381740   -0.10496180439447
H           2.81310490515012   -2.17584888283961   -0.38785017304908
H           4.18837361420646   -0.97003598014411   -0.34695259784244
H          -2.79530200485800    1.95105781542538    0.23704179192309
H          -3.46800303955479    0.52425597158156    1.03454402071212
H          -3.54644940032494    0.67168018189446   -0.72317796806574
H           0.45542264130138   -2.39878337090955   -0.25342428266884
H          -3.39781505613123   -1.76807079925931   -0.08907549800959
H          -1.21343676541249   -3.91055805505207   -0.10326941865167
H          -3.02324602716859   -4.15522916549327   -0.12180190913480
