# ORCA input file
# SCF done        -40.157539302185          0.000888231707
! B3LYP/G D3BJ Opt RIJCOSX def2-SVP def2/J
* xyz 0 1
   C        1.10819         0.61313        -0.28395
   C        0.71568         1.73042         0.43372
   C        1.79818         2.70250         0.83176
   C        2.40977         2.30973         2.17850
   C       -0.62768         1.90161         0.79493
   C       -1.05021         3.11723         1.58102
   C       -1.51387         4.24800         0.66087
   C       -1.55840         0.93608         0.39591
   C       -3.04071         1.03430         0.65775
   C       -3.80328         1.34456        -0.63191
   C       -1.13039        -0.18135        -0.30600
   C        0.19968        -0.36947        -0.66519
   C        0.57250        -1.56157        -1.41562
   C        1.77174        -1.85129        -1.90571
   H        2.15063         0.50694        -0.54438
   H        1.41949         3.72277         0.88169
   H        2.58400         2.68393         0.07337
   H        1.65599         2.31358         2.96252
   H        3.20162         3.00255         2.45533
   H        2.82933         1.30807         2.12132
   H       -0.22188         3.47314         2.19122
   H       -1.85619         2.85967         2.26897
   H       -0.73202         4.50483        -0.05024
   H       -1.75968         5.13465         1.24189
   H       -2.39499         3.94943         0.10035
   H       -3.27172         1.80013         1.39587
   H       -3.39286         0.07681         1.05215
   H       -3.46283         2.28384        -1.06278
   H       -4.86999         1.42131        -0.43210
   H       -3.64589         0.56151        -1.37004
   H       -1.85896        -0.93042        -0.58606
   H       -0.24091        -2.25899        -1.57910
   H        2.62187        -1.20173        -1.78760
   H        1.94887        -2.76080        -2.45394
*
