17
 SCF done        -37.692718763280          0.000909686752
C          -0.95076308788444    1.48056550703165   -0.08204205572295
C          -2.09851865741860    0.74170230579535   -0.11169824979658
F          -3.28508116610733    1.35725205037812   -0.22651053612714
C          -2.09147884646741   -0.66813807866566   -0.02497180732296
F          -3.28430850805324   -1.28818176039437   -0.06464909240368
C          -0.93702994998636   -1.41887576938305    0.09661647881998
C           0.27060066346018   -0.66941168236923    0.12846170853814
C           0.25393385006808    0.77075412438064    0.03935929054491
N           1.47961332513567    1.29162218127225    0.08673802713882
S           2.54160424928800    0.09930646897843    0.22846966052128
N           1.51376785494686   -1.13520623845269    0.23759753619716
C          -1.01112259924437   -2.86614053897485    0.18282977972264
C           0.03074250706755   -3.68373608144951    0.30171218488772
H          -0.96447195914185    2.55468065316684   -0.14826346884675
H          -2.01510556469360   -3.26719672724612    0.14270321774460
H           1.03868508265728   -3.31041202229816    0.34348573861096
H          -0.10761719362639   -4.74955439176964    0.36043158749382
