12
 SCF done        -20.110215305889          0.000479460107
C           0.14318651819637    1.20775043744572   -0.00116949465692
C           0.80414017844001   -0.00675704346278   -0.00135547154153
F           2.15516421132530   -0.01537547065003   -0.00176569090361
C           0.12773646010941   -1.21272536299837   -0.00110726666737
C          -1.25634561891030   -1.19437809224892   -0.00065693523032
C          -1.93925108537709    0.01075328993555   -0.00044684396537
C          -1.24101586880260    1.20707179397017   -0.00071828235010
H           0.70886384215511    2.12602899702563   -0.00132740670296
H           0.68167208076557   -2.13813645353958   -0.00127038659340
H          -1.80163191967999   -2.12614769055969   -0.00050371050672
H          -3.01864704474413    0.01764440238066   -0.00015295190760
H          -1.77435175347766    2.14573119270163   -0.00055555897411
