13
 SCF done        -27.353331634655          0.000541764374
C          -1.31167212963980   -0.13195521327773   -0.03130242131381
S          -0.50394553612457    1.38019078829444    0.05048495196124
C           1.01402206399332    0.60590616358235    0.09986944227266
C           0.92298107781893   -0.76453948077442    0.05422472355032
C           2.07272968226502   -1.68500462999457    0.08061352908698
O           1.98898427106130   -2.86872351090546   -0.15091386953852
O           3.26736820220999   -1.15782067206223    0.38370974532979
C          -0.44765841331855   -1.18603793079617   -0.03090562738365
S          -1.02001375682001   -2.83802916188440   -0.10680449078195
H          -2.38036268392779   -0.17234114247726   -0.07953840200197
H           1.89285841429863    1.22308347766251    0.13030869166067
H           3.23007847513091   -0.21625674519478    0.59105757887903
H           0.20953033305264   -3.35564194217226   -0.17652385172081
