# ORCA input file
# SCF done        -27.353331634655          0.000541764374
! B3LYP/G D3BJ Opt RIJCOSX def2-SVP def2/J
* xyz 0 1
   C       -1.31167        -0.13196        -0.03130
   S       -0.50395         1.38019         0.05048
   C        1.01402         0.60591         0.09987
   C        0.92298        -0.76454         0.05422
   C        2.07273        -1.68500         0.08061
   O        1.98898        -2.86872        -0.15091
   O        3.26737        -1.15782         0.38371
   C       -0.44766        -1.18604        -0.03091
   S       -1.02001        -2.83803        -0.10680
   H       -2.38036        -0.17234        -0.07954
   H        1.89286         1.22308         0.13031
   H        3.23008        -0.21626         0.59106
   H        0.20953        -3.35564        -0.17652
*
