20
 SCF done        -27.552323926357          0.000754070060
C          -0.71125007584829    1.11315802561425   -0.37373725285695
S          -1.49404041443817   -0.37624282361067   -0.05608648752166
C           0.02766173999544   -1.15895634698845    0.14387826189534
C           1.07744887132257   -0.31857650556471   -0.02445137541590
C           2.50482647874172   -0.74108936409042    0.09297389213639
C           0.65473614796798    1.02069353499595   -0.32976639893822
C           1.57822967565157    2.10631456588365   -0.55278238209831
C           1.24945905609559    3.36870934160184   -0.87224026126757
C           2.22299495999925    4.40741400542864   -1.07876363344045
C           1.91022957389612    5.66350812754335   -1.39124347617990
H          -1.31034976972612    1.97844760310441   -0.57372030524642
H           0.05116056831326   -2.20541476742015    0.37626991610174
H           2.56568050236831   -1.80344227646776    0.31539873978383
H           3.00133810928738   -0.19018787653416    0.89139232334218
H           3.03734363397392   -0.54932524946782   -0.83796464236270
H           2.62656338175166    1.85565165244869   -0.44875059369183
H           0.21297343475923    3.65351560498947   -0.98905821404590
H           3.26143005908057    4.12148921585866   -0.96493751008243
H           0.88510792610603    5.97585418626403   -1.50932931281771
H           2.66207614070213    6.41932934641124   -1.53929128729367
