# ORCA input file
# SCF done        -18.994923564532          0.000571001847
! B3LYP/G D3BJ Opt RIJCOSX def2-SVP def2/J
* xyz 0 1
   C        0.57086         0.94894        -0.37164
   C        1.17520        -0.22699        -0.17539
   C        0.16130        -1.26126         0.18866
   C       -1.11062        -0.48549         0.16927
   C       -0.86454         0.80223        -0.15920
   C       -1.85763         1.84806        -0.27913
   C       -1.61769         3.10360        -0.63951
   H        1.04810         1.87318        -0.64009
   H        2.22536        -0.44210        -0.25461
   H        0.35884        -1.69803         1.17086
   H        0.14662        -2.08632        -0.52787
   H       -2.06784        -0.92286         0.38871
   H       -2.87155         1.53914        -0.05246
   H       -0.62801         3.45403        -0.87784
   H       -2.40770         3.83166        -0.71008
*
