14
 SCF done        -19.300120928085          0.000235613097
C          -0.29937197673283    1.13022616986377   -0.12375637615060
N          -1.08537782848654    0.02710936313298   -0.09273909229833
C          -0.31695398733783   -1.08929996587290    0.09380004682207
C          -0.90959958730970   -2.39789200938561    0.16820105763539
C          -0.24790112400228   -3.53476421504263    0.36613418973656
C           0.99589160596725   -0.66434334977277    0.18065233497343
C           1.00210214886498    0.73156479461244    0.04276255911302
H          -0.71243839569829    2.11048147963822   -0.26018284623947
H          -2.08732371664942    0.02066686282312   -0.19001843814026
H          -1.98760855791394   -2.42076047089305    0.05021038610842
H           0.82045770846883   -3.55269589200282    0.48941876510494
H          -0.75517892167685   -4.48228209308939    0.41145653005166
H           1.85411751608218   -1.28931289146873    0.32532143541028
H           1.86325511642443    1.36993221745738    0.06417944787289
