# ORCA input file
# SCF done        -19.300120928085          0.000235613097
! B3LYP/G D3BJ Opt RIJCOSX def2-SVP def2/J
* xyz 0 1
   C       -0.29937         1.13023        -0.12376
   N       -1.08538         0.02711        -0.09274
   C       -0.31695        -1.08930         0.09380
   C       -0.90960        -2.39789         0.16820
   C       -0.24790        -3.53476         0.36613
   C        0.99589        -0.66434         0.18065
   C        1.00210         0.73156         0.04276
   H       -0.71244         2.11048        -0.26018
   H       -2.08732         0.02067        -0.19002
   H       -1.98761        -2.42076         0.05021
   H        0.82046        -3.55270         0.48942
   H       -0.75518        -4.48228         0.41146
   H        1.85412        -1.28931         0.32532
   H        1.86326         1.36993         0.06418
*
