20
 SCF done        -35.778783812993          0.000966783861
C          -1.78261855521836   -1.35298655480358    0.38614306983133
S          -2.93970516951562   -0.09400109632632    0.49542390795599
C          -1.77639847084711    1.10428415416904    0.02456695294873
C          -0.54514176521009    0.52650413202323   -0.19689904731944
C          -0.55831177129373   -0.88683376872794    0.01016837887836
O           0.50319793553736   -1.73632224621251   -0.06702126213802
S           1.94660470730716   -1.19758618149695   -0.69901569154624
C           2.32521480279054    0.05749437155782    0.56614925343542
C           1.64133414441428    1.38666455355507    0.20894294126121
O           0.53715416775449    1.23599694339634   -0.65833723678517
C          -2.19579561302798    2.47943117902628   -0.08029309108320
C          -1.47711144939911    3.47125178754807   -0.59856900496883
H          -2.05067150097669   -2.36670129211733    0.59989902966565
H           3.40614168771563    0.16660821084180    0.60563163846772
H           1.96811813493949   -0.34820462591190    1.51264118449980
H           2.32777431327485    2.02244602549583   -0.35530318458434
H           1.34002862503959    1.91257059372298    1.12677933001826
H          -3.18959590579945    2.66912067198473    0.30253448334749
H          -0.49736693737126    3.30696317858446   -1.00792852413099
H          -1.86248138011403    4.47527996369089   -0.63501312775362
