# ORCA input file
# SCF done        -35.778783812993          0.000966783861
! B3LYP/G D3BJ Opt RIJCOSX def2-SVP def2/J
* xyz 0 1
   C       -1.78262        -1.35299         0.38614
   S       -2.93971        -0.09400         0.49542
   C       -1.77640         1.10428         0.02457
   C       -0.54514         0.52650        -0.19690
   C       -0.55831        -0.88683         0.01017
   O        0.50320        -1.73632        -0.06702
   S        1.94660        -1.19759        -0.69902
   C        2.32521         0.05749         0.56615
   C        1.64133         1.38666         0.20894
   O        0.53715         1.23600        -0.65834
   C       -2.19580         2.47943        -0.08029
   C       -1.47711         3.47125        -0.59857
   H       -2.05067        -2.36670         0.59990
   H        3.40614         0.16661         0.60563
   H        1.96812        -0.34820         1.51264
   H        2.32777         2.02245        -0.35530
   H        1.34003         1.91257         1.12678
   H       -3.18960         2.66912         0.30253
   H       -0.49737         3.30696        -1.00793
   H       -1.86248         4.47528        -0.63501
*
