# ORCA input file
# SCF done        -28.780551711141          0.000482615942
! B3LYP/G D3BJ Opt RIJCOSX def2-SVP def2/J
* xyz 0 1
   C       -1.81266         1.18503         0.28344
   S       -2.84728        -0.08307         0.81445
   C       -1.73367        -1.27201         0.26054
   C       -0.63902        -0.71559        -0.31920
   C       -0.68489         0.71094        -0.30590
   S        0.52987         1.72838        -1.07423
   C        2.02590         1.36380        -0.06054
   C        1.99244         0.07314         0.73912
   C        2.10856        -1.19702        -0.08522
   S        0.63799        -1.63850        -1.10567
   H       -2.10380         2.20781         0.41137
   H       -1.95848        -2.31359         0.36920
   H        2.14105         2.21179         0.61627
   H        2.85164         1.36159        -0.77162
   H        1.09111         0.03809         1.35679
   H        2.84906         0.09426         1.42041
   H        2.27927        -2.04860         0.57514
   H        2.93153        -1.12763        -0.79612
*
