18
 SCF done        -28.780551711141          0.000482615942
C          -1.81265939232321    1.18502648425139    0.28343997646110
S          -2.84727770587101   -0.08307001396534    0.81445355565133
C          -1.73367148735891   -1.27201314270726    0.26054012316533
C          -0.63902290133506   -0.71559355798207   -0.31920216760693
C          -0.68488902952522    0.71093655688772   -0.30590451759056
S           0.52986888082056    1.72837603892002   -1.07423100339472
C           2.02590417366829    1.36379532192217   -0.06053988245353
C           1.99243618091213    0.07314473238440    0.73911605381688
C           2.10856013488842   -1.19701984895026   -0.08521776534690
S           0.63799000848333   -1.63849679892720   -1.10567051343234
H          -2.10380018678196    2.20781087965201    0.41136641402685
H          -1.95848135263736   -2.31359392905181    0.36920293876314
H           2.14105275157019    2.21178944423829    0.61627029693641
H           2.85163695074441    1.36159152349408   -0.77161820374450
H           1.09110686816529    0.03809426981777    1.35678761515600
H           2.84905728546313    0.09425763131833    1.42041421054495
H           2.27926705198875   -2.04859845860123    0.57514260083525
H           2.93153176912827   -1.12762713270104   -0.79611973178775
