19
 SCF done        -34.989087204903          0.000452221337
C           3.07434992538224   -0.32654005512226    0.13522939371993
S           2.04115408151209   -1.71576667959473    0.24000866419722
C           0.65846579102004   -0.70454416335610    0.08322522062049
C           1.02441634756449    0.64009116665462   -0.04176974084952
C           2.41428527279892    0.85439702121659   -0.01160306032917
O          -0.05638116361838    1.45086157768951   -0.16762241402001
C          -1.12975444139372    0.62050768177498   -0.12425519785654
C          -0.74723889602674   -0.71886309259143    0.02948636390824
S          -2.11482172104315   -1.75449877626676    0.07825470395322
C          -3.19153356755204   -0.37594938276760   -0.10923348279848
C          -2.51326380687514    0.81623687062226   -0.20233897286529
C          -4.60597213363909   -0.62901697356001   -0.14704040934029
C          -5.55356105505305    0.29646564073298   -0.28150711689382
H           4.13360207944440   -0.47798331144728    0.19047725338667
H           2.89036415370039    1.81297526070210   -0.09301871963997
H          -2.98557393589973    1.77226762228215   -0.32068520083034
H          -4.88167750652032   -1.67181383325463   -0.05708089648326
H          -5.32473776531119    1.34345105184804   -0.37454525016112
H          -6.59478165849011    0.02821237443745   -0.30251113771822
