# ORCA input file
# SCF done        -28.900069766462          0.000549218970
! B3LYP/G D3BJ Opt RIJCOSX def2-SVP def2/J
* xyz 0 1
   C        1.46635         1.18997        -0.25447
   S        2.67958        -0.02958        -0.24242
   C        1.48465        -1.24784        -0.02398
   C        0.22673        -0.73818         0.03978
   C        0.21718         0.67991        -0.09567
   C       -1.05180         1.47445        -0.10068
   C       -2.20081         0.66139         0.49446
   C       -2.27103        -0.74979        -0.12039
   N       -2.41878        -0.77863        -1.56535
   C       -1.01694        -1.54006         0.26603
   H        1.75172         2.21571        -0.37975
   H        1.78683        -2.27355         0.04879
   H       -1.29351         1.75646        -1.13207
   H       -0.91681         2.40385         0.45784
   H       -3.14480         1.18572         0.32628
   H       -2.05916         0.56177         1.57263
   H       -3.14999        -1.26285         0.29132
   H       -1.58379        -0.41320        -2.00986
   H       -3.20666        -0.20991        -1.85508
   H       -0.98258        -2.46149        -0.31780
   H       -1.07648        -1.81600         1.32276
*
