21
 SCF done        -28.900069766462          0.000549218970
C           1.46635274450555    1.18996642065513   -0.25447209157309
S           2.67957714251227   -0.02957825675999   -0.24242387573938
C           1.48464874504120   -1.24783793726331   -0.02397993987078
C           0.22673368184872   -0.73818257167885    0.03978312419021
C           0.21718409739609    0.67991339819373   -0.09567402704534
C          -1.05179672092024    1.47445438433993   -0.10067818320893
C          -2.20081446862143    0.66138662598057    0.49446372671456
C          -2.27102500363895   -0.74979226980190   -0.12038998227263
N          -2.41877573426433   -0.77863013973865   -1.56534571677675
C          -1.01693581280273   -1.54006272558539    0.26602621395666
H           1.75172438325421    2.21570981153651   -0.37974785317246
H           1.78682892950161   -2.27355395658693    0.04879460936091
H          -1.29350829562928    1.75645715323286   -1.13207108486404
H          -0.91680665501791    2.40385201330087    0.45783537727965
H          -3.14479838257478    1.18572129622131    0.32628447275796
H          -2.05915581703249    0.56177105033857    1.57263189732724
H          -3.14998590986333   -1.26285160654303    0.29131959510053
H          -1.58379331980316   -0.41319594921700   -2.00985801835547
H          -3.20665817220124   -0.20991260789946   -1.85507629913249
H          -0.98257964425874   -2.46148539668665   -0.31780287809422
H          -1.07647578743110   -1.81599873603842    1.32276093341787
