# ORCA input file
# SCF done        -55.481301118247          0.000603196156
! B3LYP/G D3BJ Opt RIJCOSX def2-SVP def2/J
* xyz 0 1
   C        2.37820         0.69284        -1.02997
   C        3.63357         0.28943        -0.73883
   C        3.54654        -0.57448         0.41495
   C        2.22521        -0.71513         0.77136
   O        1.82235        -1.46124         1.88335
   C        2.88270        -2.06765         2.47829
   C        4.15670        -1.94331         2.11453
   O        4.58681        -1.16015         1.04822
   C        1.43423         0.07193        -0.08960
   C        0.04637         0.18553        -0.12411
   C       -0.89436        -0.70714         0.41164
   C       -2.16324        -0.29832         0.04477
   O       -3.30171        -0.95296         0.35787
   C       -3.04870        -2.08741         1.12234
   C       -1.82834        -2.50285         1.45164
   O       -0.66292        -1.89685         1.10234
   C       -2.07112         0.91608        -0.69869
   C       -0.74701         1.24337        -0.80825
   C       -0.21710         2.46865        -1.34186
   C       -0.85584         3.25018        -2.21436
   H        2.07990         1.29250        -1.86652
   H        4.54731         0.53426        -1.24326
   H        2.58692        -2.68366         3.31141
   H        4.97095        -2.43737         2.61126
   H       -3.95140        -2.59146         1.41423
   H       -1.66781        -3.38984         2.04196
   H       -2.91614         1.47721        -1.04451
   H        0.75619         2.76532        -0.97810
   H       -1.81936         2.98580        -2.61445
   H       -0.42386         4.17081        -2.56633
*
