30
 SCF done        -55.481301118247          0.000603196156
C           2.37820024057795    0.69284054212273   -1.02996654095303
C           3.63356827806861    0.28943388445201   -0.73882918120306
C           3.54654145092521   -0.57447753664676    0.41495195182255
C           2.22521297207224   -0.71513214734893    0.77136153134686
O           1.82234820844457   -1.46124389447307    1.88334809413155
C           2.88270346178029   -2.06765185978592    2.47828670881446
C           4.15669541832190   -1.94331306165850    2.11452689755424
O           4.58681191756486   -1.16015215774098    1.04821973473113
C           1.43423380660197    0.07192800449031   -0.08960370734392
C           0.04636673253814    0.18552596521104   -0.12410963263007
C          -0.89435717821314   -0.70713995455479    0.41163891541382
C          -2.16323760973290   -0.29832251897223    0.04477465946636
O          -3.30170795416344   -0.95295667755773    0.35787017433501
C          -3.04869566121309   -2.08740963021001    1.12233507868038
C          -1.82834377628714   -2.50284821700730    1.45163945526522
O          -0.66291985909362   -1.89685148812386    1.10233692569535
C          -2.07111896797607    0.91607781332275   -0.69869174375720
C          -0.74701024596416    1.24337216085497   -0.80824731651072
C          -0.21709781604907    2.46864625591525   -1.34185785364669
C          -0.85584496022061    3.25017853994656   -2.21436208241494
H           2.07989763856271    1.29250437137548   -1.86651512972896
H           4.54730702043784    0.53426191244095   -1.24325996645265
H           2.58691601897828   -2.68366172871236    3.31141471113398
H           4.97095265868499   -2.43737087969359    2.61126249906979
H          -3.95139737075692   -2.59146423908402    1.41423136902006
H          -1.66780685352939   -3.38983518126308    2.04196186026216
H          -2.91613905143072    1.47720667876457   -1.04450524144752
H           0.75619034938259    2.76531997122656   -0.97810329764664
H          -1.81936420557904    2.98579866828319   -2.61445018278554
H          -0.42386466273214    4.17080640442719   -2.56632869022310
