# ORCA input file
# SCF done        -34.430947651238          0.000467989083
! B3LYP/G D3BJ Opt RIJCOSX def2-SVP def2/J
* xyz 0 1
   C        1.12943         0.25995        -0.00087
   C        0.68004        -1.00499         0.00001
   C       -0.79121        -0.97368        -0.00143
   C       -1.59713        -2.11928        -0.00262
   N       -2.24657        -3.06589        -0.00444
   C       -1.20066         0.32111        -0.00252
   C       -0.01807         1.16130        -0.00323
   C        0.00893         2.52347        -0.00851
   C       -1.13963         3.42364        -0.01279
   C       -0.69155         4.68897        -0.02194
   C        0.77960         4.65924        -0.02360
   C        1.19058         3.36483        -0.01479
   C        1.58531         5.80492        -0.03375
   N        2.23882         6.74864        -0.04368
   H        2.15259         0.58132        -0.00002
   H        1.25292        -1.91340         0.00145
   H       -2.21370         0.67365        -0.00369
   H       -2.16237         3.10108        -0.00904
   H       -1.26563         5.59664        -0.02738
   H        2.20394         3.01318        -0.01355
*
