21
 SCF done        -28.870383192751          0.000261161890
C           1.47571000198311   -0.71618258514161   -0.01137652142776
S          -0.01664300202744   -1.49764736793794   -0.36948304422939
C          -0.73748339610746    0.00533087088850   -0.77354586731043
C           0.12292308681411    1.04146460031681   -0.64147980037149
C           1.41752445271606    0.64168635092168   -0.18626813914739
N           2.47074676934832    1.51470473370916    0.02797975647220
C           3.80834906467160    0.97678935939755    0.15065451493259
C           4.40256440261055    0.59237502185013   -1.20298650056574
C           2.27404470102145    2.87903580185095    0.03562074148708
C           3.19942975741344    3.82733962290382   -0.08250624080194
H           2.29414876529832   -1.32918455199916    0.30399238557398
H          -1.75880384688947    0.03300671399379   -1.09694369757936
H          -0.15078025957278    2.05191731540556   -0.88260132034967
H           3.78032133138291    0.10369502166352    0.80876093483628
H           4.43017101208817    1.73146063127027    0.63481755183117
H           3.78947516395497   -0.16862851209393   -1.68018693072582
H           5.40850148104804    0.20149807488701   -1.07479160628853
H           4.44292059506277    1.46101300113332   -1.85565555880029
H           1.24456621686381    3.16963889136989    0.18673753338454
H           4.24324440432918    3.63409751937788   -0.25021041275441
H           2.91536929799049    4.86071948623292   -0.01062777816534
