# ORCA input file
# SCF done        -28.870383192751          0.000261161890
! B3LYP/G D3BJ Opt RIJCOSX def2-SVP def2/J
* xyz 0 1
   C        1.47571        -0.71618        -0.01138
   S       -0.01664        -1.49765        -0.36948
   C       -0.73748         0.00533        -0.77355
   C        0.12292         1.04146        -0.64148
   C        1.41752         0.64169        -0.18627
   N        2.47075         1.51470         0.02798
   C        3.80835         0.97679         0.15065
   C        4.40256         0.59238        -1.20299
   C        2.27404         2.87904         0.03562
   C        3.19943         3.82734        -0.08251
   H        2.29415        -1.32918         0.30399
   H       -1.75880         0.03301        -1.09694
   H       -0.15078         2.05192        -0.88260
   H        3.78032         0.10370         0.80876
   H        4.43017         1.73146         0.63482
   H        3.78948        -0.16863        -1.68019
   H        5.40850         0.20150        -1.07479
   H        4.44292         1.46101        -1.85566
   H        1.24457         3.16964         0.18674
   H        4.24324         3.63410        -0.25021
   H        2.91537         4.86072        -0.01063
*
