# ORCA input file
# SCF done        -38.066230688234          0.000743416374
! B3LYP/G D3BJ Opt RIJCOSX def2-SVP def2/J
* xyz 0 1
   C        1.50015        -1.33097        -0.03899
   S        2.73751        -0.14870        -0.03406
   C        1.56931         1.14248         0.04352
   C        0.28806         0.64340         0.04235
   C        0.25534        -0.77812         0.00182
   C       -1.00844        -1.56534        -0.04424
   S       -1.20388        -2.34272        -1.71514
   C       -2.22322        -0.71578         0.31203
   C       -2.17293         0.63940        -0.38610
   C       -0.96918         1.46985         0.08015
   O       -1.19655         2.02628         1.36383
   C        2.07119         2.49518         0.07103
   C        1.42408         3.56652         0.51979
   H        1.75245        -2.37192        -0.08372
   H       -0.94548        -2.43943         0.60955
   H       -1.00899        -1.23092        -2.41976
   H       -2.24708        -0.57561         1.39712
   H       -3.13267        -1.24835         0.02925
   H       -3.08135         1.20370        -0.16890
   H       -2.11423         0.49745        -1.46701
   H       -0.85264         2.34207        -0.57476
   H       -1.23336         1.31119         2.00815
   H        3.08664         2.59434        -0.29277
   H        0.43961         3.51243         0.94774
   H        1.88737         4.53809         0.49362
*
