# ORCA input file
# SCF done        -34.905747413412          0.000836970355
! B3LYP/G D3BJ Opt RIJCOSX def2-SVP def2/J
* xyz 0 1
   C       -2.18146         0.68757        -0.01315
   O       -1.01983         1.39281         0.03898
   C        0.15275         0.69922         0.09846
   C        1.35905         1.33039         0.15315
   F        1.55512         2.64945         0.15667
   S        2.70888         0.25091         0.22262
   C       -2.34222        -0.62873        -0.01457
   S       -1.04771        -1.82372         0.05206
   C        0.31694        -0.71380         0.11282
   C        1.62360        -1.12075         0.17701
   C        2.10278        -2.47338         0.20707
   C        3.38470        -2.82215         0.26639
   H       -3.02345         1.36244        -0.05562
   H       -3.31804        -1.07497        -0.05845
   H        1.32185        -3.22306         0.17713
   H        4.16435        -2.07990         0.29724
   H        3.68842        -3.85286         0.28689
*
