# ORCA input file
# SCF done        -61.581210791139          0.000607907067
! B3LYP/G D3BJ Opt RIJCOSX def2-SVP def2/J
* xyz 0 1
   C       -0.75315         1.28936        -0.39567
   C       -0.50002         2.05126         0.72413
   C        0.10243         3.30219         0.62186
   O        0.27232         4.03481         1.76706
   C       -0.04035         5.36793         1.67219
   C        0.41650         6.26276         2.54595
   O        0.14754         7.60026         2.54716
   C       -0.18714         8.17103         1.35093
   C       -0.53822         9.44627         1.20761
   O       -0.85260        10.04841         0.01267
   C       -0.54826         9.38306        -1.15062
   C        0.65828         8.88802        -1.40089
   O        0.96456         8.07100        -2.46542
   C        1.53371         6.92275        -1.91837
   C        0.76669         5.91366        -1.51746
   O        1.25707         4.90452        -0.75528
   C        0.50839         3.74461        -0.64669
   C        0.22157         2.98613        -1.76811
   C       -0.42511         1.75470        -1.67069
   C       -0.71166         1.01539        -2.89285
   C       -1.40587        -0.11226        -2.99172
   H       -1.22353         0.32681        -0.27786
   H       -0.77866         1.70405         1.70673
   H       -0.72832         5.62417         0.87593
   H        1.04699         5.97774         3.37425
   H       -0.07972         7.53386         0.48577
   H       -0.66868        10.12608         2.03366
   H       -1.36635         9.33526        -1.85534
   H        1.45512         9.00535        -0.67028
   H        2.59508         6.96353        -1.70939
   H       -0.29361         5.89055        -1.75216
   H        0.53081         3.36381        -2.73284
   H       -0.31384         1.46629        -3.79351
   H       -1.83932        -0.60775        -2.14038
   H       -1.57138        -0.58297        -3.94522
*
