35
 SCF done        -61.581210791139          0.000607907067
C          -0.75315237859742    1.28935984744868   -0.39567382995808
C          -0.50001812059144    2.05126385426484    0.72412863725967
C           0.10242819550624    3.30219204576290    0.62185874878172
O           0.27232200412445    4.03481068680821    1.76706492492641
C          -0.04034860942457    5.36793385518020    1.67219096737458
C           0.41650461189203    6.26276163119352    2.54595295830665
O           0.14754156824084    7.60026432400309    2.54715729271286
C          -0.18713768815698    8.17102741138936    1.35093439397282
C          -0.53822209527360    9.44627335259306    1.20760540384291
O          -0.85259786006868   10.04840879474061    0.01267171951511
C          -0.54825690379091    9.38306097238718   -1.15061828607720
C           0.65827555979080    8.88801752166505   -1.40089182370263
O           0.96456294843540    8.07099627310692   -2.46542274796116
C           1.53371464728457    6.92274777003935   -1.91836657450272
C           0.76669444088116    5.91365756179633   -1.51746236552242
O           1.25706861863224    4.90451636200103   -0.75527618812381
C           0.50839172104003    3.74460965641317   -0.64668669620970
C           0.22157054661588    2.98612741377756   -1.76811236192053
C          -0.42511118746705    1.75469510147746   -1.67068692344550
C          -0.71165585551234    1.01538675092288   -2.89284570881873
C          -1.40586770941110   -0.11226027328018   -2.99171958840353
H          -1.22353164314185    0.32680730178645   -0.27786136520171
H          -0.77865500748507    1.70404605299767    1.70673184530491
H          -0.72831609507456    5.62417300633632    0.87592782310259
H           1.04698641856542    5.97774045664065    3.37425003889981
H          -0.07972372194095    7.53385797014840    0.48577051140015
H          -0.66867508598720   10.12608087391529    2.03366190277411
H          -1.36634976876794    9.33525803075798   -1.85533597783716
H           1.45512285059271    9.00534882399903   -0.67028474730483
H           2.59508474238643    6.96353098138328   -1.70938513749839
H          -0.29361098246600    5.89055044304811   -1.75216273381252
H           0.53081484397426    3.36381421554942   -2.73284379367443
H          -0.31384146543275    1.46628802288611   -3.79350664905070
H          -1.83931791433576   -0.60775341029402   -2.14037719015854
H          -1.57138362503534   -0.58297368284586   -3.94521647898903
