27
 SCF done        -44.767820780533          0.000416085766
C          -1.13417776947074    1.36870914176508    0.73833124060116
S          -2.49251591353779    0.40672804674868    0.33406395052460
C          -1.52114337754924   -0.85310153817043   -0.30063219468509
C          -0.19142540263223   -0.54597594876088   -0.20603831216471
C           0.03298437602804    0.74295115336423    0.39548443194696
N           1.29625056182005    1.23115002430468    0.57308406085638
C           2.26616224512681    0.47095328603263    0.17423611100710
O           3.53415326661762    0.85353522020195    0.29017635086450
C           3.75052102055335    2.13686032291251    0.86892935638142
C           5.23768720380750    2.43463418389992    0.81608145395328
C           2.03821193284990   -0.84350513721290   -0.42953379059733
O           3.12339323830576   -1.52577858237771   -0.78264959853492
C           2.89488470363152   -2.80285618746536   -1.37073892467055
C           4.24175088842998   -3.45555582025383   -1.62182528373890
N           0.85132576484230   -1.32821222130754   -0.61400843604680
H          -1.26444233840456    2.32642708722797    1.19802602576648
H          -1.97185765169734   -1.73675065678086   -0.70260988030738
H           3.37964058841423    2.12837328885713    1.90046187937698
H           3.17088657491079    2.88112205408048    0.31115217922575
H           5.78997806218285    1.67400068128602    1.36067893550056
H           5.43338969604082    3.40573363646457    1.26131793683503
H           5.58067820342851    2.43905287287824   -0.21476426468052
H           2.33410247625787   -2.66861487667246   -2.30312758461470
H           2.27714781608141   -3.40206824209431   -0.69216101098852
H           4.84538467062064   -2.82643588721644   -2.26980370263621
H           4.09766603878389   -4.42189219959927   -2.09556239082143
H           4.77146312455797   -3.59361370211196   -0.68349853835304
