38
 SCF done        -54.377567859581          0.000175859734
C           1.22439792770861   -0.05139115040523    0.57366458953930
C           0.55455601727673   -0.95948720541051   -0.22334621977595
C          -0.78596006022048   -0.78445941719815   -0.56075421658424
C          -1.47238177052991    0.31369910435344   -0.01841170711470
C          -0.78842044517854    1.22737222622270    0.78076467632501
C           0.55187881252980    1.05630786156049    1.06491848600023
N          -2.85263649371035    0.49025235481658   -0.22733893792734
C          -3.32578202303508    1.75223756333011   -0.58736387646965
C          -2.55873893808956    2.57155865942385   -1.41736413689437
C          -3.01512719795662    3.82468408123559   -1.77585402801985
C          -4.24142082581022    4.28179172828958   -1.32209705418644
C          -5.00537017985944    3.47479100354083   -0.49463887790785
C          -4.55432259776731    2.22362547630066   -0.12296775584044
C          -3.71925175481599   -0.57794107615750    0.00919168920479
C          -3.41292877445542   -1.52575406578268    0.98551384830962
C          -4.25811825711060   -2.59430185325723    1.21022667072209
C          -5.42368897652694   -2.73473101431749    0.47563539073800
C          -5.73411680241537   -1.79567001225163   -0.49406931492737
C          -4.89098811459493   -0.72866485743121   -0.73275522007030
C          -1.39678181423355   -1.73702559502005   -1.49100228144545
C          -2.21651502766547   -1.41902837726698   -2.48217494244835
H           2.26666462954472   -0.20446258025103    0.80982348722181
H           1.08116052753170   -1.81451711938916   -0.62340016566492
H          -1.32891426688070    2.07166677310904    1.18432418374076
H           1.06532067089427    1.77445688982204    1.68661641428350
H          -1.60412003364609    2.21592291798347   -1.77789572590795
H          -2.41132140948409    4.44578193633206   -2.42134048885192
H          -4.59766986787749    5.25975026175333   -1.60817479120633
H          -5.95816268824914    3.82654975531582   -0.12653899481943
H          -5.14631226195200    1.60552006435698    0.53586706220546
H          -2.51016905273407   -1.41578779908897    1.56867624292725
H          -4.00840198617319   -3.31842580649694    1.97203997060662
H          -6.08441565125256   -3.56886597185698    0.65705868004968
H          -6.63751767753740   -1.89963761307865   -1.07730745252874
H          -5.13256203212060   -0.00847872801456   -1.50053742077365
H          -1.07529945898081   -2.76460509304589   -1.37074861734953
H          -2.52773321684630   -0.40497751041708   -2.66837991144197
H          -2.59807892777615   -2.16499581160829   -3.15795925371701
