# ORCA input file
# SCF done        -54.377567859581          0.000175859734
! B3LYP/G D3BJ Opt RIJCOSX def2-SVP def2/J
* xyz 0 1
   C        1.22440        -0.05139         0.57366
   C        0.55456        -0.95949        -0.22335
   C       -0.78596        -0.78446        -0.56075
   C       -1.47238         0.31370        -0.01841
   C       -0.78842         1.22737         0.78076
   C        0.55188         1.05631         1.06492
   N       -2.85264         0.49025        -0.22734
   C       -3.32578         1.75224        -0.58736
   C       -2.55874         2.57156        -1.41736
   C       -3.01513         3.82468        -1.77585
   C       -4.24142         4.28179        -1.32210
   C       -5.00537         3.47479        -0.49464
   C       -4.55432         2.22363        -0.12297
   C       -3.71925        -0.57794         0.00919
   C       -3.41293        -1.52575         0.98551
   C       -4.25812        -2.59430         1.21023
   C       -5.42369        -2.73473         0.47564
   C       -5.73412        -1.79567        -0.49407
   C       -4.89099        -0.72866        -0.73276
   C       -1.39678        -1.73703        -1.49100
   C       -2.21652        -1.41903        -2.48217
   H        2.26666        -0.20446         0.80982
   H        1.08116        -1.81452        -0.62340
   H       -1.32891         2.07167         1.18432
   H        1.06532         1.77446         1.68662
   H       -1.60412         2.21592        -1.77790
   H       -2.41132         4.44578        -2.42134
   H       -4.59767         5.25975        -1.60817
   H       -5.95816         3.82655        -0.12654
   H       -5.14631         1.60552         0.53587
   H       -2.51017        -1.41579         1.56868
   H       -4.00840        -3.31843         1.97204
   H       -6.08442        -3.56887         0.65706
   H       -6.63752        -1.89964        -1.07731
   H       -5.13256        -0.00848        -1.50054
   H       -1.07530        -2.76461        -1.37075
   H       -2.52773        -0.40498        -2.66838
   H       -2.59808        -2.16500        -3.15796
*
