# ORCA input file
# SCF done        -22.214835866019          0.000581138541
! B3LYP/G D3BJ Opt RIJCOSX def2-SVP def2/J
* xyz 0 1
   C        1.36037        -0.23961        -0.06249
   C        0.88684         1.06623        -0.08437
   C        1.84109         2.22412        -0.15948
   C        2.17650         2.55162        -1.61644
   C       -0.48595         1.27768        -0.07817
   C       -1.36562         0.21029        -0.04385
   C       -0.88274        -1.08680        -0.01817
   C        0.48367        -1.30920        -0.02870
   H        2.42677        -0.41809        -0.06805
   H        2.76194         1.97970         0.37414
   H        1.39573         3.10224         0.31251
   H        2.63483         1.69253        -2.10119
   H        2.86715         3.39030        -1.66896
   H        1.27260         2.81030        -2.16339
   H       -0.86802         2.28901        -0.09654
   H       -2.43100         0.39094        -0.03482
   H       -1.56838        -1.92097         0.01231
   H        0.86727        -2.31923        -0.00792
*
