13
 SCF done        -19.100590748970          0.000337986704
C           0.13803530630896    1.25679409187191   -0.10300827972928
C           1.38400013444770    0.75846664642688    0.10758448078837
C           1.40991263122293   -0.64955050055625    0.10155247357841
C           0.18134527589647   -1.21510573040005   -0.11667512802717
S          -1.03141672563468    0.01760640333507   -0.31575101013225
C          -0.13031114967282   -2.61755072542423   -0.18349387421229
C          -1.33814657120706   -3.12257355339910   -0.41445467735908
H          -0.17125846233809    2.28224869419256   -0.14665650406105
H           2.25312707424568    1.37285092358990    0.26292109608479
H           2.30291954782324   -1.23040674482386    0.25180834065342
H           0.71745126038321   -3.27322934966899   -0.02755871144808
H          -2.19233625251309   -2.48481261844055   -0.57252928431538
H          -1.50986206896242   -4.18357753670329   -0.45386892182040
