# ORCA input file
# SCF done        -19.100590748970          0.000337986704
! B3LYP/G D3BJ Opt RIJCOSX def2-SVP def2/J
* xyz 0 1
   C        0.13804         1.25679        -0.10301
   C        1.38400         0.75847         0.10758
   C        1.40991        -0.64955         0.10155
   C        0.18135        -1.21511        -0.11668
   S       -1.03142         0.01761        -0.31575
   C       -0.13031        -2.61755        -0.18349
   C       -1.33815        -3.12257        -0.41445
   H       -0.17126         2.28225        -0.14666
   H        2.25313         1.37285         0.26292
   H        2.30292        -1.23041         0.25181
   H        0.71745        -3.27323        -0.02756
   H       -2.19234        -2.48481        -0.57253
   H       -1.50986        -4.18358        -0.45387
*
