# ORCA input file
# SCF done        -23.675691041246          0.000700202326
! B3LYP/G D3BJ Opt RIJCOSX def2-SVP def2/J
* xyz 0 1
   C       -1.53751         1.22140         0.16831
   C       -0.25235         0.74549         0.07592
   C       -0.21195        -0.70007         0.07097
   N        0.94164        -1.40303        -0.01272
   C        2.04147        -0.72090        -0.09056
   C        2.12007         0.69807        -0.09426
   C        0.97943         1.43763        -0.01135
   C       -1.46951        -1.25153         0.15999
   S       -2.67569        -0.05016         0.25103
   H       -1.86929         2.24030         0.19298
   H        2.95171        -1.30340        -0.15763
   H        3.08816         1.16948        -0.16371
   H        0.99213         2.51859        -0.01114
   H       -1.73157        -2.28935         0.17674
*
