# ORCA input file
# SCF done        -26.457891335262          0.000519634120
! B3LYP/G D3BJ Opt RIJCOSX def2-SVP def2/J
* xyz 0 1
   C       -0.98565        -1.47261        -0.03351
   C       -2.14448        -0.77631        -0.04046
   C       -2.16284         0.65487        -0.02568
   C        0.25275        -0.76293        -0.00360
   C        1.53873        -1.18690         0.02542
   C        2.45192        -0.00259         0.05166
   C        3.41622        -0.00140         1.24085
   C        1.50867         1.15814         0.04861
   C        0.23396         0.70202         0.01106
   C       -1.02221         1.38028        -0.00439
   H       -0.97337        -2.55292        -0.04639
   H       -3.09366        -1.29288        -0.05873
   H       -3.12495         1.14722        -0.03302
   H        1.89264        -2.20124         0.03245
   H        3.04657         0.01393        -0.87088
   H        2.85242        -0.02325         2.17031
   H        4.03273         0.89410         1.22708
   H        4.06374        -0.87412         1.20422
   H        1.83651         2.18085         0.07618
   H       -1.03744         2.46059         0.00527
*
