# ORCA input file
# SCF done        -32.399394069334          0.000520835701
! B3LYP/G D3BJ Opt RIJCOSX def2-SVP def2/J
* xyz 0 1
   C       -1.44846         1.36852        -0.12430
   C       -0.19817         0.79937        -0.06777
   C       -0.25437        -0.64097        -0.08828
   N        0.87542        -1.38110        -0.03748
   C        1.98917        -0.71236         0.02539
   C        2.05937         0.71565         0.04063
   C        3.38033         1.41059         0.10815
   N        0.98427         1.45538        -0.00318
   C       -1.55117        -1.13555        -0.16349
   S       -2.67315         0.18067        -0.20339
   C       -1.93447        -2.51398        -0.20780
   C       -3.18729        -2.95813        -0.29047
   H       -1.70033         2.40922        -0.12422
   H        2.89725        -1.29998         0.06523
   H        4.19963         0.69719         0.08942
   H        3.43803         2.00135         1.02072
   H        3.47737         2.09734        -0.73053
   H       -1.09642        -3.19738        -0.16969
   H       -4.02351        -2.27854        -0.32762
   H       -3.41216        -4.00900        -0.32342
*
