14
 SCF done        -25.567687362059          0.000952958210
C           1.32445425014198   -1.12015173083514    0.00730117556446
S           1.88643827722893    0.49077136660949    0.19795552385975
C           0.30287083496722    1.10084183940670    0.05611533540903
C          -0.63134624804705    0.11048895810018   -0.12856887423710
C          -0.03009660495039   -1.19363522412586   -0.15697660456942
O          -0.62663638785473   -2.39551972879363   -0.31647970023111
C          -2.02708421169166   -2.44040781525618   -0.47989349411321
C          -1.99295878284853    0.43180381612001   -0.26538756696050
N          -3.09145330212540    0.74704846512483   -0.37330322051707
H           2.00860269110824   -1.94306434381531    0.02653155235255
H           0.11497249446037    2.15482183930746    0.11360315825727
H          -2.27342690112452   -3.49630696556783   -0.57953083071121
H          -2.34568249455188   -1.90657923561567   -1.38014380043195
H          -2.54875361471260   -2.02588124065905    0.38826734632843
