# ORCA input file
# SCF done        -25.567687362059          0.000952958210
! B3LYP/G D3BJ Opt RIJCOSX def2-SVP def2/J
* xyz 0 1
   C        1.32445        -1.12015         0.00730
   S        1.88644         0.49077         0.19796
   C        0.30287         1.10084         0.05612
   C       -0.63135         0.11049        -0.12857
   C       -0.03010        -1.19364        -0.15698
   O       -0.62664        -2.39552        -0.31648
   C       -2.02708        -2.44041        -0.47989
   C       -1.99296         0.43180        -0.26539
   N       -3.09145         0.74705        -0.37330
   H        2.00860        -1.94306         0.02653
   H        0.11497         2.15482         0.11360
   H       -2.27343        -3.49631        -0.57953
   H       -2.34568        -1.90658        -1.38014
   H       -2.54875        -2.02588         0.38827
*
