# ORCA input file
# SCF done        -39.255824498099          0.000457835583
! B3LYP/G D3BJ Opt RIJCOSX def2-SVP def2/J
* xyz 0 1
   C       -1.60317        -1.18242         0.14972
   S       -2.73377         0.09061         0.22931
   C       -1.51995         1.28063         0.14930
   C       -0.26253         0.72673         0.06254
   C       -0.30967        -0.71757         0.06279
   C        0.92499        -1.41961        -0.02264
   C        1.02882        -2.91712        -0.03326
   F       -0.13298        -3.57683         0.05274
   F        1.62597        -3.36635        -1.15643
   F        1.78680        -3.37038         0.98639
   C        2.10110        -0.72505        -0.10171
   C        2.12900         0.68634        -0.10085
   C        0.97623         1.40432        -0.02064
   H       -1.95712        -2.19195         0.17163
   H       -1.77905         2.31992         0.16910
   H        3.03201        -1.26831        -0.16621
   H        3.08373         1.18396        -0.16507
   H        0.98253         2.48365        -0.01889
*
