18
 SCF done        -39.255824498099          0.000457835583
C          -1.60316553032643   -1.18241560642615    0.14972164117818
S          -2.73377369349928    0.09061368559832    0.22930664600648
C          -1.51994729423477    1.28063376854530    0.14929711466664
C          -0.26252940177586    0.72673370920220    0.06253808044053
C          -0.30967051177194   -0.71757428486562    0.06279180080048
C           0.92498986137413   -1.41961266717175   -0.02264053808068
C           1.02882075643133   -2.91712298174650   -0.03325790050122
F          -0.13298317862891   -3.57682823945496    0.05274403855065
F           1.62597267698635   -3.36634870699200   -1.15642780546124
F           1.78679759628243   -3.37038277766613    0.98639147865165
C           2.10110467222643   -0.72504605935169   -0.10171027449795
C           2.12900499841362    0.68634338856166   -0.10084504707327
C           0.97623263183019    1.40432034170568   -0.02063698053728
H          -1.95712439508202   -2.19195260001348    0.17162899246212
H          -1.77905254624259    2.31991715263902    0.16909842537903
H           3.03201405911717   -1.26831392534190   -0.16620973442882
H           3.08372880995188    1.18396179523039   -0.16506640435847
H           0.98253048894826    2.48365400754759   -0.01889353319684
