# ORCA input file
# SCF done        -35.580326140342          0.000741498036
! B3LYP/G D3BJ Opt RIJCOSX def2-SVP def2/J
* xyz 0 1
   C        2.59457         0.78617        -0.20929
   C        2.81715        -0.64978        -0.16676
   N        1.72966        -1.36227        -0.03698
   C        0.71418        -0.45959         0.01626
   C        1.25081         0.92643        -0.09560
   C        0.16296         1.87984        -0.03084
   S        0.25620         3.51505        -0.11705
   C       -1.01242         1.06440         0.12579
   C       -0.64018        -0.36945         0.14710
   N       -1.75350        -1.14459         0.29888
   C       -2.75006        -0.31210         0.37399
   C       -2.37484         1.10482         0.27705
   C       -3.23996         2.24755         0.33524
   C       -4.56432         2.19135         0.47654
   H        3.35811         1.53197        -0.30982
   H        3.77762        -1.13133        -0.23282
   H       -3.75168        -0.68489         0.49817
   H       -2.73863         3.20382         0.25748
   H       -5.09660         1.25900         0.55505
   H       -5.15980         3.08661         0.51551
*
