20
 SCF done        -35.580326140342          0.000741498036
C           2.59457038494382    0.78617056230693   -0.20928825847783
C           2.81714957480253   -0.64978427471662   -0.16675980877302
N           1.72965931667301   -1.36226590047247   -0.03697534023988
C           0.71418499843775   -0.45959200061484    0.01625828697927
C           1.25081221258782    0.92642927030179   -0.09560070537657
C           0.16295815334521    1.87983696378304   -0.03083906110766
S           0.25620233014907    3.51504505349119   -0.11704705035285
C          -1.01242379554534    1.06440262841666    0.12579454470708
C          -0.64018092569396   -0.36944572160694    0.14709828732186
N          -1.75350244282893   -1.14459408612930    0.29888270531631
C          -2.75006119697470   -0.31210426746406    0.37399083585343
C          -2.37483965288746    1.10482350354180    0.27705335857316
C          -3.23995915101648    2.24755204400357    0.33523738694089
C          -4.56432052549502    2.19134710117008    0.47654065765006
H           3.35811376892046    1.53196774601427   -0.30982290002337
H           3.77761692903900   -1.13132693737180   -0.23281883202596
H          -3.75167753945468   -0.68489120524616    0.49817325861479
H          -2.73862692267367    3.20381925111746    0.25748354903332
H          -5.09660354975032    1.25899565856953    0.55505361928062
H          -5.15980196657844    3.08661461090565    0.51550546610651
