# ORCA input file
# SCF done        -35.071718288273          0.000507442304
! B3LYP/G D3BJ Opt RIJCOSX def2-SVP def2/J
* xyz 0 1
   C        2.81377         0.86179        -0.00142
   C        3.53247        -0.30540         0.00510
   C        2.85977        -1.52778         0.01573
   C        1.48719        -1.56739         0.01497
   C        0.72100        -0.39038         0.00591
   C        1.40965         0.84579         0.00189
   C        0.67636         2.06670         0.00558
   C       -0.67485         2.06745         0.01784
   C       -1.40956         0.84739         0.01697
   C       -0.72237        -0.38954         0.00447
   C       -1.48994        -1.56558        -0.01046
   C       -2.86247        -1.52439        -0.00645
   C       -3.53371        -0.30133         0.01457
   C       -2.81365         0.86498         0.02499
   H        3.32058         1.81668        -0.00758
   H        4.61245        -0.28518         0.00390
   H        3.42498        -2.44849         0.02537
   H        0.99911        -2.52924         0.02478
   H        1.23239         2.99368         0.00178
   H       -1.22981         2.99504         0.02572
   H       -1.00302        -2.52792        -0.02813
   H       -3.42878        -2.44439        -0.01988
   H       -4.61367        -0.27987         0.02067
   H       -3.31933         1.82040         0.03863
*
