24
 SCF done        -35.071718288273          0.000507442304
C           2.81377151659776    0.86179081701460   -0.00141782701237
C           3.53246569544150   -0.30539754124551    0.00509809096754
C           2.85976569545161   -1.52777584096201    0.01573131485942
C           1.48718984240759   -1.56739111162610    0.01497134373136
C           0.72100412219284   -0.39038164154787    0.00591332635222
C           1.40964897448091    0.84579332837887    0.00188988707284
C           0.67635581523087    2.06670171599276    0.00558089820658
C          -0.67484529147201    2.06744912009639    0.01783510689828
C          -1.40955880391183    0.84739139381818    0.01696972258830
C          -0.72236873884662   -0.38953822525011    0.00447495227888
C          -1.48994375984924   -1.56558133912578   -0.01045669958640
C          -2.86246711397743   -1.52439391158875   -0.00644667652453
C          -3.53371217744753   -0.30132757860421    0.01457162764696
C          -2.81364966238742    0.86497811031504    0.02499211377627
H           3.32057636779568    1.81667644994225   -0.00757963930491
H           4.61244782565762   -0.28517573001108    0.00389871831601
H           3.42498426217769   -2.44848912827904    0.02536863629000
H           0.99910844037608   -2.52923561516905    0.02478403653793
H           1.23238908841278    2.99368334435437    0.00177824946753
H          -1.22980811498196    2.99504473010057    0.02571996744679
H          -1.00301554143288   -2.52791795412764   -0.02812671608109
H          -3.42877836881167   -2.44438977439884   -0.01987721317277
H          -4.61366916166804   -0.27986983976653    0.02067169194786
H          -3.31933091143630    1.82039622168949    0.03862508729730
