11
 SCF done        -25.516603341283          0.000618659445
C           1.61926500097457   -0.93333100270716   -0.00098863158195
S           2.49249006188688    0.54814674032813    0.00118497870194
C           1.04360327563323    1.47449413675330    0.00400517649505
C          -0.05301319655039    0.67270079030272    0.00325378076560
C           0.27856963752844   -0.71424438878265    0.00037761503212
S          -1.05464357734758   -1.83960526183214   -0.00117541424742
C          -2.34352675721759   -0.60806241462935    0.00308475493504
O          -3.50052730918537   -0.88460449963989    0.00237934615421
S          -1.75104843453185    1.07337196920971    0.00486352158640
H           2.13812829450529   -1.86917479319943   -0.00321834238931
H           1.08319300430437    2.54381872419676    0.00593321454832
