# ORCA input file
# SCF done        -25.516603341283          0.000618659445
! B3LYP/G D3BJ Opt RIJCOSX def2-SVP def2/J
* xyz 0 1
   C        1.61927        -0.93333        -0.00099
   S        2.49249         0.54815         0.00118
   C        1.04360         1.47449         0.00401
   C       -0.05301         0.67270         0.00325
   C        0.27857        -0.71424         0.00038
   S       -1.05464        -1.83961        -0.00118
   C       -2.34353        -0.60806         0.00308
   O       -3.50053        -0.88460         0.00238
   S       -1.75105         1.07337         0.00486
   H        2.13813        -1.86917        -0.00322
   H        1.08319         2.54382         0.00593
*
