# ORCA input file
# SCF done        -35.854744785562          0.000958097506
! B3LYP/G D3BJ Opt RIJCOSX def2-SVP def2/J
* xyz 0 1
   C        1.37309         0.70896         0.08068
   C        0.02275         0.94551        -0.09330
   C       -0.69943         2.17983        -0.20272
   O       -1.89129         2.29992        -0.34942
   C        0.19599         3.45210        -0.11704
   F        1.12499         3.47117        -1.08928
   F       -0.51354         4.56891        -0.22655
   F        0.86409         3.51332         1.04756
   S       -0.87306        -0.54486        -0.17999
   C        0.56019        -1.44181         0.01371
   C        1.67297        -0.65438         0.14156
   H        2.11371         1.48331         0.16081
   H        0.51831        -2.51368         0.02598
   H        2.66581        -1.04379         0.27366
*
