# ORCA input file
# SCF done        -43.608294286269          0.000905090645
! B3LYP/G D3BJ Opt RIJCOSX def2-SVP def2/J
* xyz 0 1
   N       -3.40802        -0.08204         0.13161
   N       -2.68339         1.14731         0.05171
   C       -1.39391         0.84800        -0.58039
   C       -0.19155         1.52112         0.08852
   C       -0.15975         1.42330         1.61635
   C        1.09381         1.00878        -0.60292
   C        1.15324        -0.55203        -0.81354
   N        2.41394        -1.04377        -0.28127
   S        2.85919         0.02931         0.97599
   N        2.26672         1.42203         0.15372
   C        0.00527        -1.29835        -0.12795
   C        0.07383        -2.79049        -0.44486
   C       -1.32339        -0.71827        -0.58866
   N       -2.46383        -1.13858         0.22532
   H       -3.88800        -0.19810        -0.76412
   H       -2.54424         1.47064         1.00619
   H       -1.44679         1.20392        -1.61859
   H       -0.24598         2.59136        -0.14393
   H       -0.38839         0.42925         1.98839
   H       -0.86907         2.12595         2.05093
   H        0.83123         1.69918         1.96595
   H        1.13129         1.48512        -1.58997
   H        1.11406        -0.77486        -1.88557
   H        3.14127        -1.09698        -0.98801
   H        2.98770         1.82118        -0.43867
   H        0.12652        -1.18210         0.95108
   H        0.00468        -2.95728        -1.51786
   H       -0.75119        -3.30769         0.03723
   H        1.01429        -3.20077        -0.08781
   H       -1.52213        -1.06896        -1.61104
   H       -2.18925        -1.21689         1.20512
*
