# ORCA input file
# SCF done        -46.743911097116          0.000866422284
! B3LYP/G D3BJ Opt RIJCOSX def2-SVP def2/J
* xyz 0 1
   C       -1.19901         0.61927        -0.72846
   C       -0.05365         1.33678        -0.54483
   C        0.99281         0.53021        -0.07364
   C        0.61059        -0.79103         0.09026
   S       -1.03359        -1.05631        -0.33161
   C        1.72153        -1.53890         0.56750
   C        2.81043        -0.68844         0.70614
   C        2.44170         0.72062         0.30520
   C        2.59822         1.70462         1.47871
   C        1.79236         1.30060         2.70752
   C        3.28156         1.20898        -0.88920
   C        3.18062         0.29330        -2.10325
   C        3.95130        -1.34102         1.17191
   C        3.73804        -2.68626         1.38908
   S        2.09079        -3.15253         1.00934
   C        4.64260        -3.69694         1.85958
   C        5.91872        -3.50259         2.18843
   H       -2.14939         0.97110        -1.07785
   H        0.02080         2.39113        -0.74275
   H        2.27939         2.69458         1.14447
   H        3.65679         1.76278         1.74203
   H        0.73139         1.25307         2.47313
   H        1.93664         2.02806         3.50281
   H        2.10738         0.32538         3.07204
   H        4.32480         1.27823        -0.57270
   H        2.94484         2.21192        -1.16148
   H        3.52993        -0.70797        -1.86147
   H        3.78991         0.68332        -2.91498
   H        2.15169         0.22385        -2.44836
   H        4.89849        -0.86434         1.34693
   H        4.21419        -4.68776         1.94127
   H        6.38726        -2.53587         2.12488
   H        6.53511        -4.31269         2.53568
*
