33
 SCF done        -46.743911097116          0.000866422284
C          -1.19901316090780    0.61927096630684   -0.72845710201289
C          -0.05365223348825    1.33678132733072   -0.54483029257722
C           0.99280771229463    0.53020929177288   -0.07363997007455
C           0.61059346400261   -0.79102950918867    0.09026497685414
S          -1.03359338406368   -1.05630799817990   -0.33160660415142
C           1.72153493550143   -1.53889614884412    0.56750323673468
C           2.81043013931439   -0.68843742626432    0.70613714864909
C           2.44170380479900    0.72062133346392    0.30519975301718
C           2.59821924114939    1.70462352135154    1.47871365763226
C           1.79236043967820    1.30060433078137    2.70751551541948
C           3.28155837768438    1.20897830915605   -0.88920219375879
C           3.18062192891924    0.29330357053440   -2.10324996490933
C           3.95130039380061   -1.34101781891951    1.17191452664943
C           3.73804202254491   -2.68625842770775    1.38908085945144
S           2.09079136379012   -3.15253198644274    1.00933929307944
C           4.64260186858066   -3.69693907623657    1.85957593575696
C           5.91872126178690   -3.50258643782672    2.18842787448192
H          -2.14939260730490    0.97110067580367   -1.07785395857328
H           0.02079817903122    2.39113008990088   -0.74275203602879
H           2.27939026335625    2.69458126758071    1.14446657258936
H           3.65679156943397    1.76278098987806    1.74202791284295
H           0.73139462255826    1.25306840069913    2.47312507723134
H           1.93663514024578    2.02805553954982    3.50280637958797
H           2.10738082469143    0.32537689478468    3.07203676152705
H           4.32480402043360    1.27823478301442   -0.57269995988674
H           2.94483748225110    2.21192263871286   -1.16147675523976
H           3.52992609460940   -0.70797352444051   -1.86147297389034
H           3.78991159984904    0.68332356979778   -2.91498137320768
H           2.15169064962512    0.22384715359268   -2.44835973897406
H           4.89848677729189   -0.86434393651375    1.34693021717023
H           4.21418619052407   -4.68776415938023    1.94126537166104
H           6.38725962197119   -2.53587262120457    2.12488429764693
H           6.53511139604580   -4.31268558286296    2.53567755530190
