# ORCA input file
# SCF done        -35.849744376324          0.000537833692
! B3LYP/G D3BJ Opt RIJCOSX def2-SVP def2/J
* xyz 0 1
   C        0.02246         1.36358        -0.00395
   S       -1.18065         0.12956         0.07793
   C        0.00437        -1.07681         0.03599
   C        1.28773        -0.56663        -0.03852
   C        1.27640         0.86070        -0.06031
   C        2.40032        -1.49667        -0.08092
   O        2.27860        -2.69881        -0.05255
   C        3.86842        -0.97363        -0.16434
   F        4.03832         0.35416        -0.23168
   F        4.55450        -1.38600         0.90936
   F        4.46771        -1.48348        -1.24744
   H       -0.27589         2.39284        -0.00514
   H       -0.25700        -2.11662         0.06636
   H        2.14834         1.48263        -0.11467
*
