26
 SCF done        -41.039991375721          0.000442381853
C           1.43930767861723   -1.30202569262436    0.26281160525534
S           2.69220093282642   -0.13455596319250    0.19690854683866
C           1.54292771774623    1.14702446646802   -0.08086058021074
C           0.25665544821759    0.65499028493295   -0.09733640273995
C           0.20461331358044   -0.75364572240570    0.09819467761906
C          -1.08110119572134   -1.51970961396621    0.16438359120868
C          -2.23487117154099   -0.71233776927437   -0.42591163365763
C          -2.24935697159653    0.71781439014298    0.13487526651590
C          -2.44773514641826    0.65714005076904    1.64801353633258
O          -3.53219434467853    0.53210060935646    2.14254851564689
O          -1.34905895469830    0.73481248283250    2.40908294063114
C          -0.98791333693316    1.46854557165087   -0.30346274232240
C           2.06783350555121    2.48106889409000   -0.23359103476245
C           1.45825787869843    3.53562450775739   -0.76797319474921
H           1.68360759629658   -2.33342480298890    0.42150237472132
H          -1.29945814425659   -1.76134053802209    1.21004988134519
H          -0.97542415091375   -2.46749037584673   -0.36750976312867
H          -3.18196425527096   -1.20239659614022   -0.19756678756142
H          -2.12959931224444   -0.65796931212080   -1.51176342551914
H          -3.13096151323308    1.23241814411634   -0.26015017827132
H          -0.53732430112099    0.78751123230706    1.87831109295322
H          -0.91021128117267    2.42267152583213    0.22716343542410
H          -1.08535768807349    1.69849996672196   -1.36957790347740
H           3.08794012591890    2.58835714121667    0.11520528032931
H           0.46752401769372    3.49990522523129   -1.18179492480021
H           1.96187355272621    4.48477189315628   -0.82624217362069
