# ORCA input file
# SCF done        -26.310142666263          0.000410595630
! B3LYP/G D3BJ Opt RIJCOSX def2-SVP def2/J
* xyz 0 1
   C        1.59392        -1.16482         0.00133
   C        0.31287        -0.74638         0.00137
   C       -0.92794        -1.46174         0.00308
   C       -2.08735        -0.77325         0.00254
   C       -2.11810         0.66858         0.00033
   C       -0.98909         1.40587        -0.00133
   C        0.28109         0.74404        -0.00092
   C        1.54315         1.21666        -0.00233
   C        2.47133         0.04513        -0.00050
   O        3.67761         0.07090        -0.00115
   H        1.97293        -2.16824         0.00253
   H       -0.90671        -2.54121         0.00465
   H       -3.03404        -1.29348         0.00363
   H       -3.08610         1.14796        -0.00012
   H       -1.01392         2.48527        -0.00308
   H        1.87916         2.23529        -0.00425
*
