16
 SCF done        -26.310142666263          0.000410595630
C           1.59392120345470   -1.16481600198010    0.00133122964433
C           0.31287078466121   -0.74638495898672    0.00137041454398
C          -0.92794062159698   -1.46174067350111    0.00308349065386
C          -2.08734639133299   -0.77325095400343    0.00254452495854
C          -2.11809886654843    0.66857782000066    0.00032827417440
C          -0.98909213094617    1.40587061335612   -0.00132567118283
C           0.28109320933679    0.74404281677208   -0.00092262880720
C           1.54314964154842    1.21666306408544   -0.00233147894745
C           2.47132765024942    0.04512898909698   -0.00049777728790
O           3.67760506662394    0.07090014906470   -0.00115060066906
H           1.97293034273443   -2.16824036335695    0.00252718651097
H          -0.90670523491465   -2.54121256451970    0.00465375375034
H          -3.03403650100071   -1.29347534813764    0.00363442373004
H          -3.08610490011399    1.14796159938831   -0.00012256309326
H          -1.01391872804079    2.48526578526875   -0.00308316288796
H           1.87915547588581    2.23529002745261   -0.00424941509079
