# ORCA input file
# SCF done        -43.627000299454          0.000305364522
! B3LYP/G D3BJ Opt RIJCOSX def2-SVP def2/J
* xyz 0 1
   C       -2.68884         0.17350        -0.03906
   C       -2.97012        -1.14504        -0.09455
   S       -1.56334        -2.14958        -0.14948
   C       -0.54734        -0.74222        -0.09238
   C       -1.28778         0.44938        -0.03589
   C       -0.63255         1.70242         0.01489
   C       -1.48717         2.94139         0.07452
   C       -1.90686         3.24792         1.51385
   C        0.74798         1.75033         0.04318
   C        1.51260         3.04647         0.10835
   C        1.89709         3.52294        -1.29408
   C        1.49120         0.54863        -0.03191
   C        2.90838         0.37488        -0.05624
   C        3.28328        -0.91880        -0.13735
   S        1.95201        -2.02174        -0.18749
   C        0.83795        -0.69233        -0.09964
   H       -3.45349         0.92758         0.00413
   H       -3.93481        -1.61353        -0.10672
   H       -2.37836         2.79245        -0.53713
   H       -0.95366         3.79627        -0.33918
   H       -2.47008         2.41628         1.93093
   H       -2.52804         4.14050         1.54661
   H       -1.03229         3.41045         2.13989
   H        2.41743         2.90021         0.70024
   H        0.92431         3.81586         0.60684
   H        2.49825         2.77023        -1.79891
   H        2.46906         4.44666        -1.23912
   H        1.00703         3.70085        -1.89372
   H        3.61715         1.18210        -0.02104
   H        4.27900        -1.31566        -0.17395
*
