30
 SCF done        -43.627000299454          0.000305364522
C          -2.68883746558970    0.17349668922199   -0.03905827370835
C          -2.97011758818172   -1.14504066229269   -0.09455046276496
S          -1.56333504457656   -2.14957957148161   -0.14948064275985
C          -0.54733865325065   -0.74222439693114   -0.09238473513624
C          -1.28778290521101    0.44937536704576   -0.03589495552374
C          -0.63254895079860    1.70241726385937    0.01488774017004
C          -1.48716688408849    2.94139206321836    0.07451545120603
C          -1.90686055009155    3.24792279944853    1.51384566760100
C           0.74798290562061    1.75032592532662    0.04317815473579
C           1.51259994238283    3.04647007376455    0.10834672093496
C           1.89709064670605    3.52294058416383   -1.29407999903412
C           1.49119590851318    0.54863265339950   -0.03190687849436
C           2.90838130436229    0.37488410456522   -0.05624306638573
C           3.28327783853529   -0.91879868682329   -0.13735139722540
S           1.95200922527369   -2.02173769617329   -0.18748693343592
C           0.83795048873801   -0.69232711836999   -0.09964253120104
H          -3.45348622635183    0.92758491591948    0.00413030406115
H          -3.93481385184195   -1.61353085168167   -0.10672482617163
H          -2.37835969821504    2.79245278468794   -0.53713287351098
H          -0.95366059044166    3.79626529475766   -0.33917876521948
H          -2.47007696789311    2.41628338771389    1.93092971107972
H          -2.52803979596665    4.14050415426714    1.54660755956588
H          -1.03229486658559    3.41044870911316    2.13989000350510
H           2.41743096321098    2.90020856549603    0.70024371345949
H           0.92431163726282    3.81585728167387    0.60684499092079
H           2.49824545850954    2.77023242594490   -1.79891250652984
H           2.46906201866760    4.44665877065554   -1.23912456562152
H           1.00702536057461    3.70084843183699   -1.89371954161805
H           3.61714713388537    1.18209586273661   -0.02103801958817
H           4.27899920684128   -1.31565912506301   -0.17394904331052
