# ORCA input file
# SCF done        -29.013812398844          0.000946323018
! B3LYP/G D3BJ Opt RIJCOSX def2-SVP def2/J
* xyz 0 2
   C        1.15811         0.34201        -0.08520
   S        0.69616        -1.29165         0.03239
   C       -1.01322        -0.99508         0.06210
   C       -1.40432         0.32406         0.09487
   S       -0.09264         1.51594         0.09082
   C       -2.77324         0.82381         0.14391
   O       -3.75213         0.09460         0.16198
   C       -2.89546         2.32675         0.17278
   C       -1.91420        -2.12131         0.06594
   C       -1.52260        -3.39346         0.07948
   H        2.18397         0.62738         0.01068
   H       -2.45390         2.75609        -0.72550
   H       -2.36475         2.72921         1.03504
   H       -3.94538         2.60113         0.22904
   H       -2.96292        -1.85760         0.06078
   H       -0.48099        -3.67461         0.08771
   H       -2.23893        -4.19529         0.08099
*
