# ORCA input file
# SCF done        -38.742147519566          0.000395388194
! B3LYP/G D3BJ Opt RIJCOSX def2-SVP def2/J
* xyz 0 1
   C       -1.00188         0.01530         0.72574
   O       -1.01541        -1.32435         0.93343
   C       -0.05572        -1.82089         0.16161
   C        0.59158        -0.81995        -0.55445
   C       -0.03883         0.38377        -0.17570
   C        1.66259        -1.40523        -1.41159
   O        2.42122        -0.84964        -2.16051
   C        1.55208        -2.86373        -1.10057
   C        0.53569        -3.08269        -0.17456
   O        0.41275        -4.36980         0.11913
   C        1.35927        -5.02601        -0.61888
   C        2.08590        -4.12804        -1.38759
   C        1.43505        -6.45438        -0.48104
   C        2.29935        -7.23860        -1.12085
   H       -1.71915         0.59442         1.27209
   H        0.17842         1.37600        -0.51234
   H        2.88568        -4.36622        -2.05698
   H        0.71298        -6.87329         0.20675
   H        3.02570        -6.84333        -1.80898
   H        2.30215        -8.30346        -0.97286
*
