25
 SCF done        -44.592364525505          0.000572531111
C          -2.46224026835499    1.29231893981352    0.01312208852130
S          -3.69693647034902    0.10292707405125    0.00621080926563
C          -1.21213196016454    0.74584456835322    0.01848471431623
C           0.03925882238929    1.52729719168542    0.02049683178077
O           0.07102394591101    2.74419470573741    0.03424285581630
C           1.21802286621034    0.67108436250620    0.00144576978361
C           2.54936609676142    1.02344977519665   -0.02781343503702
N           3.29785904986543   -0.10488097479768   -0.05416609788315
C           4.73846675938836   -0.14831204035773   -0.03286707106417
C           5.26812521358847   -0.17995151272831    1.39893012292730
C           2.48362647337885   -1.18681546066536   -0.02869157512026
C           1.17560222925658   -0.75599654294949    0.00097430689056
C          -0.05191467443177   -1.54073304217200    0.02006987709729
O          -0.09240940172862   -2.75737041896457    0.03362252542843
C          -1.25469260715430   -0.68637548417936    0.01840798070525
C          -2.53503971082487   -1.15767024644003    0.01303306709468
H          -2.71074277630403    2.33524379845084    0.01116889354115
H           2.99031965271242    2.00035471955226   -0.04069681290195
H           5.11921836690404    0.73444977644917   -0.55307541197626
H           5.06645540772737   -1.04059438714670   -0.57259621361168
H           4.94813180774380    0.70670106637363    1.94093304201925
H           6.35400364364498   -0.21239181286643    1.39253250454602
H           4.89536655040711   -1.05759785941119    1.92150109308224
H           2.86579605235276   -2.18816290277591   -0.04254544140084
H          -2.84501506893006   -2.18400329271481    0.01105557617927
