# ORCA input file
# SCF done        -46.802197569143          0.000835151027
! B3LYP/G D3BJ Opt RIJCOSX def2-SVP def2/J
* xyz 0 1
   C        3.06057        -1.32634         0.15351
   C        2.94822         0.01814         0.05251
   C        1.60194         0.47031         0.01977
   C        0.69869        -0.57843         0.09853
   S        1.52795        -2.10198         0.21310
   C       -0.71732        -0.54656         0.08986
   C       -1.57054         0.54461         0.00531
   C       -1.24943         1.96932        -0.09223
   O       -2.12463         2.80841        -0.15713
   N        0.06172         2.40979        -0.11469
   C        1.35126         1.90692        -0.08561
   O        2.26501         2.70419        -0.14786
   C       -2.93048         0.15991         0.01958
   C       -3.13416        -1.18857         0.11198
   S       -1.61275        -2.03091         0.18743
   C       -4.39495        -1.87818         0.14337
   C       -4.53406        -3.19760         0.23149
   H        3.95234        -1.91896         0.19696
   H        3.77491         0.70263        -0.00019
   H        0.08643         3.42701        -0.18658
   H       -3.72120         0.88585        -0.03911
   H       -5.26108        -1.23222         0.08570
   H       -3.67785        -3.85095         0.28828
   H       -5.50286        -3.66370         0.24865
*
