24
 SCF done        -46.802197569143          0.000835151027
C           3.06057423211568   -1.32633544926575    0.15351153267876
C           2.94822251195948    0.01814314348872    0.05250947329305
C           1.60194385018800    0.47031022015897    0.01977344436165
C           0.69869421705497   -0.57843443765405    0.09852615572938
S           1.52794722544566   -2.10197614222359    0.21309792589173
C          -0.71731625912143   -0.54656327590185    0.08986371265102
C          -1.57054254334667    0.54460796765402    0.00531379069828
C          -1.24942608259882    1.96931973266006   -0.09223227219187
O          -2.12463480814203    2.80840651857553   -0.15712543893407
N           0.06171672029984    2.40978710507837   -0.11469284472952
C           1.35125688789163    1.90691708361939   -0.08561113032146
O           2.26500837500752    2.70419080666738   -0.14786243061287
C          -2.93047732974574    0.15990763158025    0.01958428284762
C          -3.13415675805199   -1.18857309126362    0.11197550725505
S          -1.61274798364268   -2.03091316539117    0.18742540707459
C          -4.39494791507843   -1.87817502818837    0.14336542249182
C          -4.53405647058410   -3.19759638871335    0.23149072143039
H           3.95234181660361   -1.91896373438441    0.19695810238492
H           3.77490843848614    0.70262640683597   -0.00018598785798
H           0.08643416914188    3.42700709240048   -0.18658484252503
H          -3.72119806492464    0.88585103340749   -0.03910982241284
H          -5.26107941048791   -1.23222104942322    0.08569606899194
H          -3.67785215958476   -3.85094763485730    0.28827814164993
H          -5.50286265888514   -3.66369534485996    0.24864508015544
