27
 SCF done        -37.979275497513          0.000653747357
C           1.06239329361630   -1.07722295683781   -0.34100768273195
S           2.39865982483818   -0.03053130462591   -0.12739933537791
C           1.34574529567921    1.33623150898131    0.13929145809522
C           0.02652084156975    0.95567891558570    0.06922753206273
C          -0.12616691312199   -0.42830054237761   -0.20866914341415
C          -1.45967151682553   -1.11278782807505   -0.33330736655962
O          -1.37509205797934   -2.00829460711652   -1.42801568421237
C          -2.42141197706492   -2.93979282280090   -1.50910496925337
C          -2.57529614326362   -0.07065896183483   -0.48791104989228
C          -2.41078377313516    1.02218440045039    0.56156298439944
C          -1.15718294468873    1.84669818492570    0.27827685299983
C           1.97229764467086    2.60960918139051    0.38893337153933
C           1.41724423092412    3.81538786472059    0.30198457414090
H           1.22013870754530   -2.11201239721174   -0.56756705656778
H          -1.64616299192296   -1.69586180888781    0.59026781324884
H          -2.14837387007110   -3.63478092857962   -2.30134668499488
H          -3.37723670982510   -2.46766919170698   -1.76265662740212
H          -2.53727359638754   -3.48998475208123   -0.56641385324756
H          -3.54911866326637   -0.55163709303952   -0.37951135849760
H          -2.51201587827264    0.35884239617391   -1.49011316743055
H          -2.33324505373360    0.56281407433588    1.55027949578633
H          -3.28547508541410    1.67537506393994    0.56136982235184
H          -0.96210598666305    2.53397849065563    1.10527742330561
H          -1.31908708608949    2.44522334179672   -0.62446778009649
H           3.02187519721469    2.53511205905584    0.64816184854468
H           0.39647877516820    3.97332846613544    0.00635283162728
H           1.99408643649833    4.69968124702775    0.51183575157669
