# ORCA input file
# SCF done        -34.773609178481          0.000903207870
! B3LYP/G D3BJ Opt RIJCOSX def2-SVP def2/J
* xyz 0 1
   C       -1.26303         1.20256        -0.13531
   C       -0.02357         0.68410         0.08395
   C       -0.13489        -0.75293         0.07056
   C       -1.52770        -1.09079        -0.17533
   O       -2.11158        -2.14231        -0.27398
   N       -2.14377         0.17123        -0.28661
   C        1.11235        -1.26348         0.29610
   O        2.00859        -0.24692         0.44996
   C        1.37154         0.99326         0.33067
   O        1.97394         2.02232         0.43181
   C        1.54431        -2.62802         0.38313
   C        2.80741        -2.97904         0.62731
   H       -1.58342         2.22582        -0.19405
   H       -3.13158         0.27721        -0.45936
   H        0.76001        -3.35643         0.23537
   H        3.57118        -2.23301         0.76964
   H        3.10482        -4.01085         0.68737
*
