# ORCA input file
# SCF done        -48.285092655908          0.000298146595
! B3LYP/G D3BJ Opt RIJCOSX def2-SVP def2/J
* xyz 0 1
   C        1.22439        -0.39650        -1.98478
   C        0.49067         0.64774        -1.42915
   O        1.11262         1.86193        -1.42785
   C        0.47627         2.97738        -0.84120
   C        0.53464         2.95934         0.68424
   C       -0.79346         0.39498        -0.96774
   C       -1.33855        -0.88280        -1.03148
   C       -2.76933        -1.08442        -0.60676
   C       -3.72589        -0.35362        -1.55021
   C       -0.57360        -1.93103        -1.53608
   O       -1.08296        -3.22186        -1.56671
   C       -0.97783        -3.93282        -0.34442
   C        0.45149        -4.31363         0.02861
   C        0.71485        -1.68498        -2.04384
   C        1.46206        -2.77865        -2.65954
   C        2.77918        -2.83464        -2.80218
   H        2.19913        -0.17400        -2.38713
   H       -0.56045         3.06104        -1.19093
   H        1.03480         3.83782        -1.22114
   H        0.01739         2.09018         1.08313
   H        0.07132         3.85945         1.07935
   H        1.57030         2.92101         1.01223
   H       -1.40482         1.18438        -0.55920
   H       -2.90974        -0.71306         0.41238
   H       -3.01463        -2.14571        -0.62639
   H       -3.54049         0.71778        -1.54449
   H       -4.75636        -0.52696        -1.24792
   H       -3.59572        -0.71813        -2.56635
   H       -1.57985        -4.83272        -0.49873
   H       -1.41828        -3.34800         0.47561
   H        0.90442        -4.91514        -0.75463
   H        0.44100        -4.88553         0.95283
   H        1.05660        -3.42138         0.17367
   H        0.84580        -3.59967        -3.00164
   H        3.43271        -2.05523        -2.44790
   H        3.25757        -3.67556        -3.27502
*
