36
 SCF done        -48.285092655908          0.000298146595
C           1.22438748864220   -0.39649685318080   -1.98478014839258
C           0.49066510945838    0.64774107973406   -1.42914742139524
O           1.11262499737840    1.86192683642058   -1.42784750100039
C           0.47627452769283    2.97738409108132   -0.84119851542047
C           0.53463720217782    2.95933782045621    0.68423596411168
C          -0.79345843203667    0.39498288094501   -0.96773820725230
C          -1.33854625125119   -0.88279594859284   -1.03148429903249
C          -2.76932523631366   -1.08441513450129   -0.60675875266075
C          -3.72589047966119   -0.35361685702871   -1.55021180785506
C          -0.57360025863655   -1.93103014028342   -1.53608297785866
O          -1.08295839464921   -3.22185628864125   -1.56671120431600
C          -0.97783274538261   -3.93282434612657   -0.34442295103631
C           0.45149484366575   -4.31362741181152    0.02861169802065
C           0.71484586868073   -1.68498279883133   -2.04384007381306
C           1.46206323641552   -2.77864675276818   -2.65953772539620
C           2.77917586898467   -2.83463849976033   -2.80218302425878
H           2.19913495780887   -0.17399628572570   -2.38713163747681
H          -0.56044902744566    3.06104268736075   -1.19092963417164
H           1.03479836886014    3.83782014296540   -1.22113650029901
H           0.01739232740233    2.09017996225632    1.08312601972067
H           0.07131728789553    3.85944806124023    1.07935090305496
H           1.57030220170916    2.92101120294779    1.01222825957754
H          -1.40482088783152    1.18438472621426   -0.55919840747848
H          -2.90974094096190   -0.71306427072118    0.41238045504325
H          -3.01462781430825   -2.14570761379165   -0.62639125919364
H          -3.54049374308922    0.71777564248087   -1.54448633869850
H          -4.75636311049540   -0.52696311473407   -1.24791566990769
H          -3.59571852390431   -0.71812815454438   -2.56634806492729
H          -1.57985159424675   -4.83272489321182   -0.49873344477660
H          -1.41827555208853   -3.34800451807461    0.47561009309367
H           0.90441827018489   -4.91514346411991   -0.75462547945684
H           0.44100355625643   -4.88552736475079    0.95282808637611
H           1.05660328542685   -3.42138019443646    0.17366636905920
H           0.84579658864595   -3.59966953143142   -3.00163758071956
H           3.43271117058736   -2.05522847292632   -2.44790283205978
H           3.25756583443058   -3.67555622410705   -3.27501638920246
