# ORCA input file
# SCF done        -42.116312300199          0.000481483043
! B3LYP/G D3BJ Opt RIJCOSX def2-SVP def2/J
* xyz 0 1
   C       -1.51876        -1.49161         0.02086
   S       -2.85684        -0.43644         0.14728
   C       -1.83341         0.96606         0.04910
   C       -0.51293         0.59435        -0.09544
   C       -0.33613        -0.82363        -0.11537
   O        0.82080        -1.50487        -0.36776
   C        1.93372        -1.28223         0.47191
   C        2.10076         0.16180         0.94862
   C        1.79980         1.19480        -0.13292
   S        2.44978         0.66812        -1.78343
   C        2.17937         2.23825        -2.64672
   O        0.45432         1.55492        -0.20697
   C       -2.44201         2.26881         0.10775
   C       -1.81198         3.43619         0.00640
   H       -1.65686        -2.55330         0.00831
   H        2.79339        -1.57840        -0.13493
   H        1.87162        -1.94440         1.34878
   H        3.12547         0.28921         1.29691
   H        1.42543         0.36345         1.78636
   H        2.31373         2.13667         0.09094
   H        2.40861         2.06209        -3.69231
   H        2.84115         2.99909        -2.24039
   H        1.13856         2.52865        -2.53371
   H       -3.51560         2.24406         0.24505
   H       -0.74885         3.49840        -0.13601
   H       -2.35385         4.36416         0.06216
*
