# ORCA input file
# SCF done        -36.030869850673          0.000557668811
! B3LYP/G D3BJ Opt RIJCOSX def2-SVP def2/J
* xyz 0 1
   C        1.54032        -1.24087        -0.13816
   S        2.77779        -0.05791        -0.07081
   C        1.60335         1.21830         0.13215
   C        0.32495         0.71235         0.12342
   C        0.29644        -0.69926        -0.02659
   C       -0.96703        -1.51148        -0.10220
   C       -1.12589        -2.03398        -1.50341
   C       -1.20776        -3.31357        -1.81341
   C       -2.17751        -0.66311         0.31528
   C       -2.12643         0.72625        -0.31012
   C       -0.93483         1.51128         0.23440
   C        2.10873         2.56175         0.26032
   C        1.47230         3.62129         0.75217
   H        1.79804        -2.27455        -0.25928
   H       -0.88260        -2.36948         0.57443
   H       -1.15998        -1.28266        -2.28062
   H       -1.16996        -4.08441        -1.06045
   H       -1.31641        -3.64891        -2.83119
   H       -2.18494        -0.56300         1.40331
   H       -3.09247        -1.17959         0.01806
   H       -3.04887         1.26680        -0.08777
   H       -2.04487         0.64154        -1.39487
   H       -1.11499         1.75179         1.28792
   H       -0.82456         2.45288        -0.30866
   H        3.13452         2.67462        -0.06995
   H        0.47304         3.57716         1.14376
   H        1.95864         4.58068         0.79543
*
