# ORCA input file
# SCF done        -61.262579237376          0.000262622963
! B3LYP/G D3BJ Opt RIJCOSX def2-SVP def2/J
* xyz 0 1
   C        3.05831         2.31391         2.18330
   C        2.26577         2.22374         1.03970
   C        2.81022         1.75677        -0.25440
   O        2.15615         1.11990        -1.05284
   C        4.22833         2.10535        -0.51365
   C        5.08109         1.27089        -1.17242
   S        6.66321         1.91589        -1.30886
   C        6.18655         3.33981        -0.47626
   C        4.87335         3.31786        -0.10594
   C        4.17220         4.47840         0.49427
   O        3.07503         4.82217         0.10600
   C        4.90318         5.22141         1.54893
   C        5.90452         4.63879         2.32306
   C        6.54194         5.37912         3.30127
   C        6.19264         6.70338         3.51399
   C        5.18828         7.28593         2.75716
   C        4.54112         6.54677         1.78663
   C        0.92142         2.57803         1.11782
   C        0.39426         3.04416         2.30247
   C        1.18128         3.14579         3.45258
   C        2.52264         2.76408         3.37045
   C        0.57097         3.63480         4.68199
   C        1.11906         3.64104         5.89160
   H        4.09337         2.00410         2.14818
   H        4.85611         0.29908        -1.56501
   H        6.89264         4.13534        -0.33902
   H        6.17420         3.60404         2.17324
   H        7.31540         4.92273         3.90136
   H        6.70033         7.27904         4.27375
   H        4.91078         8.31554         2.92673
   H        3.75252         6.97816         1.18839
   H        0.31325         2.50207         0.22939
   H       -0.64606         3.33353         2.34697
   H        3.15607         2.83057         4.24164
   H       -0.43853         4.00926         4.56318
   H        2.11067         3.26955         6.08569
   H        0.58308         4.01773         6.74583
*
