37
 SCF done        -61.262579237376          0.000262622963
C           3.05830887906728    2.31391338834236    2.18329596585368
C           2.26577238244697    2.22374295466579    1.03969512252269
C           2.81021737274231    1.75676994440461   -0.25439567091056
O           2.15614779039181    1.11989542979796   -1.05283765074090
C           4.22832944608438    2.10534947814679   -0.51364585871650
C           5.08109453544332    1.27089193427160   -1.17242146775367
S           6.66320548112237    1.91588974808774   -1.30886484624726
C           6.18654787437557    3.33980590605377   -0.47626192070131
C           4.87335227607733    3.31786005499102   -0.10594464496103
C           4.17220238853191    4.47839839137652    0.49427128352673
O           3.07502686836720    4.82216882869800    0.10600119213398
C           4.90317698622756    5.22140835488345    1.54892855822855
C           5.90452425374586    4.63879370067611    2.32306067603001
C           6.54193891122043    5.37912336660592    3.30127187547893
C           6.19263677618210    6.70337808301195    3.51399498217852
C           5.18827805002817    7.28593222364660    2.75716235533348
C           4.54112386878882    6.54676778118386    1.78662516557319
C           0.92142147819683    2.57803298427604    1.11781573789964
C           0.39425683854452    3.04415800570075    2.30246949784281
C           1.18128120971387    3.14578916198145    3.45258475537746
C           2.52264205315432    2.76407646146188    3.37044691270227
C           0.57097445312170    3.63480318798179    4.68198913624474
C           1.11906036918804    3.64103607346371    5.89160072799057
H           4.09337258779797    2.00409839827038    2.14818270827859
H           4.85610757654406    0.29908263717074   -1.56500993084717
H           6.89264193451847    4.13533956300410   -0.33902171951319
H           6.17420487918062    3.60403601212130    2.17324352326333
H           7.31540063468621    4.92273296842755    3.90136250941988
H           6.70032569818712    7.27904013975097    4.27375105193021
H           4.91078253681592    8.31554061667604    2.92672934621463
H           3.75252029559099    6.97816201042554    1.18839471083147
H           0.31325146197785    2.50207034365101    0.22938845117636
H          -0.64605907029848    3.33353269994135    2.34697222476862
H           3.15606855245725    2.83057156990255    4.24163877173570
H          -0.43852855449592    4.00926152218219    4.56317792036840
H           2.11067346727886    3.26955086685044    6.08568863431660
H           0.58307745699562    4.01772520791411    6.74582991317109
