# ORCA input file
# SCF done        -42.179419698761          0.000796181798
! B3LYP/G D3BJ Opt RIJCOSX def2-SVP def2/J
* xyz 0 1
   C        1.46798         0.88177         0.17414
   C        0.19980         1.35342         0.03979
   C       -0.25292         2.76195         0.13371
   F        0.76786         3.59386         0.38449
   F       -0.83779         3.20732        -0.99594
   F       -1.15741         2.96365         1.11234
   S       -0.94605         0.08814        -0.27385
   C        0.33109        -1.08823        -0.21762
   O        0.11275        -2.39386        -0.39644
   C       -1.21475        -2.79898        -0.64215
   C        1.56740        -0.52396         0.02927
   C        2.77648        -1.31989         0.11783
   C        3.99441        -0.84638         0.35158
   H        2.30651         1.52381         0.37141
   H       -1.18751        -3.88142        -0.74785
   H       -1.59875        -2.34510        -1.56147
   H       -1.86919        -2.52303         0.19086
   H        2.61799        -2.37957        -0.02645
   H        4.18979         0.20169         0.49879
   H        4.84653        -1.50124         0.40193
*
