20
 SCF done        -42.179419698761          0.000796181798
C           1.46798490666590    0.88176800772503    0.17413553561632
C           0.19979775646499    1.35341897031026    0.03978582136201
C          -0.25291858393544    2.76194874937167    0.13370540911289
F           0.76785872544826    3.59386148652520    0.38449421560172
F          -0.83778548612476    3.20731701404593   -0.99594466811720
F          -1.15740510245629    2.96365006186409    1.11233586258949
S          -0.94604571672883    0.08813881621177   -0.27385244902739
C           0.33109190785223   -1.08822956086095   -0.21761591897595
O           0.11274667630118   -2.39386004834879   -0.39643565367903
C          -1.21474985571713   -2.79897621615667   -0.64215395573592
C           1.56739967231451   -0.52396300851074    0.02927409569229
C           2.77647761748025   -1.31989498832296    0.11782708792907
C           3.99441469539975   -0.84637551245209    0.35157630543857
H           2.30650802029404    1.52380868920674    0.37141054892972
H          -1.18751181750955   -3.88142060856730   -0.74784992326769
H          -1.59875345439556   -2.34510391248225   -1.56147001938539
H          -1.86919032221671   -2.52302661166422    0.19086042385366
H           2.61799073798189   -2.37956938076508   -0.02644619654313
H           4.18978739295685    0.20169284878424    0.49879056661305
H           4.84653222992440   -1.50124479591387    0.40193291199293
