25
 SCF done        -31.811211376968          0.000235895721
C           1.62174410442353    1.20605871447339   -0.08498025897808
S           2.82498626388729   -0.02197275316064   -0.04607545739579
C           1.61011925347318   -1.23703679116459    0.02569042732044
C           0.35351557108621   -0.71998226296314    0.01812666050450
C           0.36022723619109    0.70262255723535   -0.04379429645285
C          -0.88874316162854    1.53370981915827   -0.00937349250949
C          -1.03357589328012    2.19650381317914    1.36519171507900
C          -2.10412503157274    0.66639805909433   -0.35460391331082
C          -2.09793542913787   -0.65662564762918    0.40609020852224
C          -0.90519883446954   -1.53673067783451    0.01757623109358
C          -1.10041062522581   -2.18889774433689   -1.35581563073665
H           1.92394841186735    2.23338262161713   -0.13739185583903
H           1.90238583793315   -2.26760081434295    0.07019148108928
H          -0.80373355019397    2.33324294807346   -0.75538425424609
H          -1.08464524739693    1.44900443351155    2.15285507060401
H          -1.93730961872909    2.80139511237483    1.39974727054942
H          -0.17892623849501    2.83845287510372    1.56447062697111
H          -2.10730157686033    0.46563479723366   -1.42742654537800
H          -3.01684649896021    1.21827894557499   -0.12059456778105
H          -3.02455381932089   -1.19828711673949    0.20522442233129
H          -2.05985018431568   -0.45618044009565    1.47832725853405
H          -0.80663262703214   -2.34188914508070    0.75576431613315
H          -1.16330528935638   -1.43607603999434   -2.13748818036983
H          -2.01366284976652   -2.78021755562099   -1.36714074709981
H          -0.26154020312006   -2.84205770766674   -1.58373648863457
