# ORCA input file
# SCF done        -34.079392358259          0.000834974618
! B3LYP/G D3BJ Opt RIJCOSX def2-SVP def2/J
* xyz 0 1
   C       -1.49902         0.44310         0.19290
   C       -0.44862         1.08081        -0.39781
   C        0.74987         0.37176        -0.22466
   C        0.57631        -0.79762         0.50055
   S       -1.05757        -1.03517         0.97482
   C        1.83032        -1.45206         0.63057
   C        2.80114        -0.69554        -0.01359
   C        2.18914         0.53579        -0.61549
   C        4.07131        -1.26894         0.06709
   C        4.07205        -2.45534         0.76849
   S        2.46943        -2.87568         1.34232
   C        5.20599        -3.29256         1.03503
   C        5.17451        -4.43265         1.72110
   H       -2.52541         0.75061         0.22129
   H       -0.54227         2.01160        -0.92778
   H        2.31665         0.56581        -1.69966
   H        2.62267         1.44956        -0.20341
   H        4.96335        -0.84834        -0.36258
   H        6.13999        -2.92636         0.62913
   H        4.25578        -4.81295         2.13567
   H        6.06168        -5.01724         1.88761
*
