21
 SCF done        -34.079392358259          0.000834974618
C          -1.49901685037461    0.44310009038797    0.19289832360018
C          -0.44862200825740    1.08080548193362   -0.39780953091316
C           0.74987251582647    0.37176262234668   -0.22466136231316
C           0.57631115651587   -0.79761682368545    0.50055119810702
S          -1.05756597856513   -1.03517444631798    0.97481775298095
C           1.83032090634323   -1.45206227407403    0.63057291566785
C           2.80113667430974   -0.69553554425638   -0.01358979399913
C           2.18913683827908    0.53579453259448   -0.61549073407167
C           4.07130714701368   -1.26894418233522    0.06709133095151
C           4.07205158576177   -2.45534482967931    0.76848753347660
S           2.46942911201084   -2.87567743481842    1.34231530871956
C           5.20599360431776   -3.29255940985900    1.03502603023384
C           5.17450907336773   -4.43264917018020    1.72109679215812
H          -2.52541118006232    0.75061403565116    0.22128739286192
H          -0.54226643971556    2.01160337612100   -0.92777857052292
H           2.31664700773695    0.56581226729841   -1.69965871102513
H           2.62266867191998    1.44955780661833   -0.20341074778628
H           4.96334558704191   -0.84833832083122   -0.36257708321095
H           6.13999425065207   -2.92636175661008    0.62912860016424
H           4.25577767146827   -4.81295058224071    2.13567246841962
H           6.06168065440973   -5.01723543806367    1.88761088650116
