15
 SCF done        -20.157545565432          0.000337234537
C          -0.71528370703271   -1.39988907686563   -0.00563990246070
C          -1.24819320232619   -0.15152435544395   -0.01367756856581
C          -2.67988714024519    0.25090707969749   -0.02154764241122
S           0.00636326739353    1.05119010443524   -0.01617013225803
C           1.24605402986473   -0.16522873190598   -0.00514002731679
C           2.68516203640432    0.21868088706927   -0.00335927110668
C           0.69996270745382   -1.40836109865295    0.00036401804507
H          -1.31276870161865   -2.29485981566500   -0.00259370312564
H          -3.31251312813332   -0.63345171487421    0.00226467045696
H          -2.91446335661572    0.82610349851482   -0.91735841143833
H          -2.91149187227415    0.87236045101550    0.84339350809324
H           2.79053164556824    1.30057964941350    0.00391717164547
H           3.18679060581182   -0.17402145374840   -0.88814359266799
H           3.18742231487495   -0.18645394083746    0.87530617801759
H           1.28774450087453   -2.30961148215225    0.00767470509286
