# ORCA input file
# SCF done        -39.149736007619          0.000582820945
! B3LYP/G D3BJ Opt RIJCOSX def2-SVP def2/J
* xyz 0 1
   C        0.53464         1.07756         0.01996
   S       -0.30445        -0.41557         0.04629
   C        1.18298        -1.29651        -0.18032
   N        1.18144        -2.65791        -0.10415
   C       -0.02226        -3.42145        -0.30064
   C        2.27218        -0.45712        -0.27727
   C        1.88028         0.91545        -0.14819
   C        2.73466         2.10812        -0.23963
   O        2.35823         3.22732         0.01971
   O        3.98356         1.84200        -0.65832
   C        4.83907         2.96504        -0.78990
   C        3.64571        -0.91104        -0.44968
   C        4.03977        -1.88772        -1.25742
   H        0.00256         2.00181         0.11490
   H        2.05305        -3.09746        -0.35625
   H       -0.79919        -3.04045         0.36424
   H        0.17445        -4.46193        -0.05147
   H       -0.39397        -3.36439        -1.33116
   H        4.87857         3.52623         0.14611
   H        4.47618         3.62790        -1.57831
   H        5.81969         2.57185        -1.04514
   H        4.38246        -0.37072         0.12851
   H        3.36050        -2.41267        -1.91046
   H        5.07536        -2.17159        -1.33009
*
