# ORCA input file
# SCF done        -51.776927274568          0.000834679282
! B3LYP/G D3BJ Opt RIJCOSX def2-SVP def2/J
* xyz 0 1
   C       -1.61725         1.38214         0.06033
   S       -2.75574         0.12115         0.14467
   C       -1.53453        -1.10284         0.19953
   C       -0.26638        -0.52482         0.15232
   C       -0.32584         0.90970         0.07133
   C        0.87892         1.66502         0.01277
   C        0.79162         3.15385        -0.06925
   F        0.11841         3.57719        -1.16033
   F        0.14626         3.69776         0.98309
   F        1.98999         3.75259        -0.11793
   C        2.07821         1.01592         0.03407
   C        2.14579        -0.38628         0.11498
   C        1.01364        -1.16212         0.17516
   O        1.01951        -2.51292         0.25684
   C        2.25507        -3.19008         0.29500
   C       -1.89200        -2.49050         0.27945
   C       -3.14270        -2.94774         0.31298
   H       -1.95181         2.39811         0.00678
   H        2.99874         1.57690        -0.01058
   H        3.12357        -0.83767         0.12872
   H        2.00642        -4.24737         0.37235
   H        2.84737        -2.89252         1.16511
   H        2.83289        -3.01987        -0.61832
   H       -1.05901        -3.17543         0.31182
   H       -3.99100        -2.28355         0.28229
   H       -3.35392        -4.00026         0.37314
*
