24
 SCF done        -34.004982938233          0.000624059873
C           1.49974934135592   -1.30703353365849   -0.09759899448725
S           2.72826829958758   -0.11729821685303   -0.10632463513633
C           1.54925412899512    1.16461079030668    0.01121118339916
C           0.27257810666085    0.65670929631870    0.03242594486925
C           0.25220894038438   -0.76323398988362   -0.02462262101554
C          -1.00672613346633   -1.56015878118860   -0.04466695611689
S          -1.20830483570282   -2.37308060884599   -1.69741670636936
C          -2.22602956859365   -0.71383677373978    0.30502771309394
C          -2.17899208819982    0.63359109806151   -0.40613818386587
C          -0.99151424840306    1.45472721081797    0.09226314833755
C           2.04572753146196    2.51759396391794    0.05297260326064
C           1.40728704326582    3.59410068481214    0.50287401809892
H           1.75888000169467   -2.34564550484578   -0.15730720267044
H          -0.93141374342475   -2.42011823202033    0.62652761621925
H          -1.03213679230492   -1.27242314992779   -2.42473182864311
H          -2.23873510565465   -0.55209146919656    1.38631494223738
H          -3.13186944271026   -1.25800940322514    0.03306257469823
H          -3.10473974246757    1.18158423904143   -0.22368556745756
H          -2.09378506199811    0.47682972940575   -1.48407490962634
H          -1.17601470868149    1.75507606606281    1.12922499501603
H          -0.88351668194381    2.36335136909585   -0.50421146572968
H           3.06303609502906    2.62258760303002   -0.30463008063032
H           0.41814614335813    3.55815053102229    0.91998317282221
H           1.88135252175773    4.56013708149200    0.48410123969611
