# ORCA input file
# SCF done        -42.367762877633          0.000539289810
! B3LYP/G D3BJ Opt RIJCOSX def2-SVP def2/J
* xyz 0 1
   C       -2.64045        -0.65379         0.02225
   C       -1.46842        -1.39603         0.05908
   C       -0.27156        -0.71170         0.00309
   C       -0.25201         0.68435        -0.08188
   C        1.16636         1.12055        -0.11948
   O        1.62524         2.23290        -0.18432
   N        1.91155        -0.04666        -0.05440
   C        1.12856        -1.19205         0.01894
   O        1.55678        -2.31644         0.08806
   C        3.35727        -0.07376        -0.11210
   C        3.85022        -0.07525        -1.55477
   C       -1.41139         1.42181        -0.11898
   C       -2.63796         0.74140        -0.07313
   C       -3.91600         1.44108        -0.11948
   C       -4.09866         2.72362        -0.41215
   H       -3.58948        -1.16907         0.06220
   H       -1.48685        -2.47244         0.12973
   H        3.68484        -0.97877         0.40510
   H        3.72596         0.81026         0.41411
   H        3.46955        -0.94770        -2.08109
   H        4.93596        -0.10131        -1.57352
   H        3.51225         0.82282        -2.06669
   H       -1.36604         2.49746        -0.17286
   H       -4.77821         0.82133         0.09237
   H       -3.28733         3.38961        -0.65193
   H       -5.08442         3.15545        -0.43146
*
