# ORCA input file
# SCF done        -30.594787608947          0.000796270301
! B3LYP/G D3BJ Opt RIJCOSX def2-SVP def2/J
* xyz 0 1
   C       -0.69933         1.20675         0.16794
   O       -1.36551         0.02905         0.13036
   C       -0.44410        -0.95465         0.05543
   C        0.81029        -0.42487         0.04401
   O        2.03591        -1.01769        -0.02143
   C        2.02099        -2.42265        -0.09059
   C        0.65109         0.99876         0.11784
   N        1.70581         1.87744         0.13019
   C        1.61651         3.24328         0.18711
   C        2.66420         4.06110         0.18902
   H       -1.29290         2.09450         0.22867
   H       -0.80941        -1.96017         0.01727
   H        3.06261        -2.73453        -0.13886
   H        1.49066        -2.76828        -0.98365
   H        1.54676        -2.85651         0.79550
   H        2.62280         1.45928         0.08237
   H        0.60538         3.61959         0.23211
   H        3.67354         3.69003         0.14381
   H        2.53698         5.12504         0.23564
*
