19
 SCF done        -30.594787608947          0.000796270301
C          -0.69932502279096    1.20674826726300    0.16793925239741
O          -1.36550709598246    0.02904629071122    0.13036200602486
C          -0.44409749494964   -0.95465322071021    0.05543352948391
C           0.81028649331522   -0.42487193456275    0.04400780115107
O           2.03590873419905   -1.01768982693195   -0.02142990108173
C           2.02099181858475   -2.42265357660842   -0.09058837910535
C           0.65109418233366    0.99875523270497    0.11783549076293
N           1.70580854206526    1.87743839034197    0.13019129743281
C           1.61651089671842    3.24328497950466    0.18710752127370
C           2.66420172066598    4.06110118206425    0.18902183204211
H          -1.29289982005935    2.09450125326716    0.22866536004816
H          -0.80941345646435   -1.96016836490342    0.01727001241328
H           3.06260683892986   -2.73453141664248   -0.13886432124440
H           1.49065509558641   -2.76827857341157   -0.98365342572033
H           1.54675722363532   -2.85650847454341    0.79549795183097
H           2.62280335763452    1.45928049969856    0.08237026464947
H           0.60538491567667    3.61958686815024    0.23210557869104
H           3.67353949831477    3.69002553135907    0.14381039191868
H           2.53698357258688    5.12503689324910    0.23563773703140
