# ORCA input file
# SCF done        -30.386102828292          0.000291008761
! B3LYP/G D3BJ Opt RIJCOSX def2-SVP def2/J
* xyz 0 1
   C       -0.28938         0.81970        -0.08934
   O       -0.90120        -0.37311        -0.21179
   C        0.00393        -1.33959        -0.00090
   C        1.23257        -0.74103         0.26411
   C        1.02588         0.66469         0.20294
   N        2.46976        -1.36121         0.54378
   O        2.51075        -2.57684         0.57375
   O        3.42221        -0.63373         0.73833
   C       -0.37024        -2.72795        -0.06961
   C       -1.60803        -3.13706        -0.34076
   H       -0.89247         1.69388        -0.23207
   H        1.77031         1.41657         0.35910
   H        0.43404        -3.42397         0.11733
   H       -2.40643        -2.43745        -0.52402
   H       -1.85326        -4.18305        -0.38277
*
