15
 SCF done        -30.386102828292          0.000291008761
C          -0.28937946147887    0.81970139792372   -0.08934497046456
O          -0.90119755749310   -0.37311015165823   -0.21179033792155
C           0.00393248270353   -1.33959368085700   -0.00090416521037
C           1.23256914250720   -0.74102985399326    0.26411434240991
C           1.02588489538507    0.66468752505078    0.20294365810794
N           2.46975731286249   -1.36120536079902    0.54377516874863
O           2.51074768662365   -2.57684013930265    0.57375317884099
O           3.42221177954019   -0.63372898452250    0.73833015092746
C          -0.37024433167627   -2.72794859130201   -0.06960842032898
C          -1.60803487354981   -3.13706470393118   -0.34075689373981
H          -0.89246553488700    1.69387770325874   -0.23206581830934
H           1.77030572203498    1.41657466986385    0.35910140443069
H           0.43403526612330   -3.42397233913450    0.11733376990618
H          -2.40642517939694   -2.43744781550897   -0.52401615958566
H          -1.85325734929841   -4.18304967508776   -0.38277490781153
