15
 SCF done        -28.884978968425          0.000602054151
C           2.58971700683398    0.82224589108631    0.00469166600098
S           3.26373401069077   -0.76872122960391   -0.00203323849414
C           1.70572294710218   -1.50279037373043   -0.00494027655485
C           0.71525991338462   -0.57093372580740   -0.00076038324326
C           1.23675339026092    0.76591293216356    0.00477410308625
S          -0.00215408962262    2.01291023739901    0.01035002937516
C          -1.24125197498866    0.76610244273458    0.00531090705845
C          -0.71997547129246   -0.57082480876750   -0.00042735903347
C          -1.71058360679290   -1.50252716144658   -0.00409873056230
S          -3.26847479250930   -0.76820943538864   -0.00054567470566
C          -2.59421328719219    0.82264337487053    0.00585968062427
H           3.23434846648257    1.67662028124157    0.00813508031006
H           1.62125036363629   -2.57035606200744   -0.00943335603329
H          -1.62629447560300   -2.57010364638673   -0.00861285058180
H          -3.23866840039020    1.67715128364308    0.00961040275361
