# ORCA input file
# SCF done        -41.957354258426          0.000713145770
! B3LYP/G D3BJ Opt RIJCOSX def2-SVP def2/J
* xyz 0 1
   C        1.45566        -0.03872         0.45532
   C        0.60948         0.89844        -0.13527
   O        1.07442         2.17482        -0.18304
   C        0.26564         3.18738        -0.74498
   C        1.03022         4.49816        -0.64450
   C       -0.62525         0.48891        -0.62691
   C       -1.01611        -0.84170        -0.53107
   O       -2.21012        -1.30164        -0.99565
   C       -3.11988        -0.40763        -1.60006
   C       -4.34929        -1.20845        -2.00200
   C       -0.16645        -1.79608         0.06545
   C        1.06428        -1.35469         0.54813
   C       -0.60539        -3.18090         0.15574
   C        0.08951        -4.20758         0.63352
   H        2.40956         0.29246         0.83273
   H       -0.68411         3.26120        -0.19632
   H        0.04650         2.95758        -1.79764
   H        1.26047         4.71216         0.39555
   H        0.43298         5.30824        -1.05328
   H        1.96312         4.42598        -1.19616
   H       -1.28376         1.20718        -1.08620
   H       -2.66554         0.05589        -2.48777
   H       -3.40137         0.38580        -0.89249
   H       -4.06907        -1.99036        -2.70294
   H       -5.08138        -0.55509        -2.46878
   H       -4.79152        -1.67261        -1.12440
   H        1.72991        -2.06428         1.01258
   H       -1.60558        -3.35146        -0.21689
   H        1.09148        -4.11275         1.01512
   H       -0.32984        -5.19868         0.65902
*
