45
 SCF done        -54.227381178159          0.000299255146
C          -2.91939700187987    1.34579429399481   -0.38723084510702
C          -1.67563564764746    1.87072529944612    0.32794284794043
C          -0.94335193097193    0.71050159822599    0.98878524634937
C          -0.50853868435146   -0.30533636998043   -0.08081967569603
C          -1.77568652967725   -0.86950877887411   -0.72743194551729
C          -2.55186179229064    0.26238722403242   -1.39857016851222
N           0.41766735027721   -1.32349673641334    0.35765195936278
C          -0.06936326218361   -2.45834357085181    1.11159752621287
C          -0.56917612690267   -2.18899368072168    2.53801917124189
C           1.73366540844053   -0.84316386218983    0.76065095417242
C           1.83263933802809    0.67553016213832    0.89115097441544
S           0.49372709045183    1.29001557861402    1.97486933105724
C           3.18758936132161    1.07683682234878    1.45236206681862
C           4.28026443053060    0.62567025422233    0.48755409054971
C           4.20022942143620   -0.87956876383990    0.25636584288032
C           2.81810524572774   -1.30942772916457   -0.24901989230058
C           2.77618420582903   -2.79409347125497   -0.42371235125719
C           2.32633080830197   -3.41080441357718   -1.50032593148045
H          -3.42911044825506    2.16873110538931   -0.89196608626932
H          -3.60774321725331    0.93045250673691    0.35276382567056
H          -1.95592228706870    2.60815509087089    1.08261771280463
H          -1.01154791377596    2.36118082283258   -0.38828142617964
H          -1.60506437951221    0.23782077798833    1.71660695375969
H           0.01406924455501    0.24929171637990   -0.87250498735295
H          -2.40884546775843   -1.34043959579033    0.02594286597419
H          -1.49414510545757   -1.62394032524129   -1.46382230505408
H          -3.45882912016916   -0.13617351059802   -1.85779699202643
H          -1.94149355764228    0.69942003121691   -2.19235726540863
H          -0.86302039961039   -2.93333212950041    0.53132195456782
H           0.75978606458027   -3.16911747839871    1.15531773659124
H          -1.56670962679686   -1.75740855341818    2.53543507763607
H           0.09756649734084   -1.50624114020337    3.05988689222395
H          -0.60913490304203   -3.12354855449228    3.09278978053630
H           1.98248256677405   -1.26958142736678    1.74136775384945
H           1.70042344320590    1.16290046189847   -0.07836740544516
H           3.33096360662058    0.61153545270514    2.42980708918959
H           3.22055964789207    2.15932353003758    1.58988102206130
H           5.26051098892521    0.88644259709325    0.89090312126713
H           4.16022927461404    1.14865151533869   -0.46419503793307
H           4.40938199752190   -1.39800699137049    1.19559180339680
H           4.95840999507131   -1.18489471424361   -0.46831254372777
H           2.60825180404934   -0.83167228096616   -1.21113620090572
H           3.15260853879546   -3.36672332078157    0.41520967075857
H           1.94822800653405   -2.86443763706669   -2.34803366727068
H           2.31044306542180   -4.48473180520497   -1.57935854384417
