# ORCA input file
# SCF done        -54.227381178159          0.000299255146
! B3LYP/G D3BJ Opt RIJCOSX def2-SVP def2/J
* xyz 0 1
   C       -2.91940         1.34579        -0.38723
   C       -1.67564         1.87073         0.32794
   C       -0.94335         0.71050         0.98879
   C       -0.50854        -0.30534        -0.08082
   C       -1.77569        -0.86951        -0.72743
   C       -2.55186         0.26239        -1.39857
   N        0.41767        -1.32350         0.35765
   C       -0.06936        -2.45834         1.11160
   C       -0.56918        -2.18899         2.53802
   C        1.73367        -0.84316         0.76065
   C        1.83264         0.67553         0.89115
   S        0.49373         1.29002         1.97487
   C        3.18759         1.07684         1.45236
   C        4.28026         0.62567         0.48755
   C        4.20023        -0.87957         0.25637
   C        2.81811        -1.30943        -0.24902
   C        2.77618        -2.79409        -0.42371
   C        2.32633        -3.41080        -1.50033
   H       -3.42911         2.16873        -0.89197
   H       -3.60774         0.93045         0.35276
   H       -1.95592         2.60816         1.08262
   H       -1.01155         2.36118        -0.38828
   H       -1.60506         0.23782         1.71661
   H        0.01407         0.24929        -0.87250
   H       -2.40885        -1.34044         0.02594
   H       -1.49415        -1.62394        -1.46382
   H       -3.45883        -0.13617        -1.85780
   H       -1.94149         0.69942        -2.19236
   H       -0.86302        -2.93333         0.53132
   H        0.75979        -3.16912         1.15532
   H       -1.56671        -1.75741         2.53544
   H        0.09757        -1.50624         3.05989
   H       -0.60913        -3.12355         3.09279
   H        1.98248        -1.26958         1.74137
   H        1.70042         1.16290        -0.07837
   H        3.33096         0.61154         2.42981
   H        3.22056         2.15932         1.58988
   H        5.26051         0.88644         0.89090
   H        4.16023         1.14865        -0.46420
   H        4.40938        -1.39801         1.19559
   H        4.95841        -1.18489        -0.46831
   H        2.60825        -0.83167        -1.21114
   H        3.15261        -3.36672         0.41521
   H        1.94823        -2.86444        -2.34803
   H        2.31044        -4.48473        -1.57936
*
