18
 SCF done        -27.022377053033          0.000856124404
C          -2.11954395961836    0.06037877237898   -0.04660039814887
N          -1.36443004689465   -1.07925434426872   -0.13012010530593
C          -0.05107750645514   -0.72028304359676   -0.04421980693613
C           1.26097689590097   -1.20878867509230   -0.04158643324654
C           2.08407564050732   -0.09766281455902    0.09845970801202
N           1.30821950828530    1.03911501735955    0.18146415794667
C           0.00120522357696    0.67734242944371    0.09342070200255
C          -1.31813500493075    1.16678383538303    0.09197491841849
C           3.51753190316146   -0.08276921987641    0.15581296547859
C           4.29585080983753    0.99059451067725    0.29188858586657
H          -3.19018906996425    0.00942719196405   -0.09221084602705
H          -1.72711999341659   -2.01095390368594   -0.22993838901557
H           1.59170591400415   -2.22507737211795   -0.12734202108051
H           1.66937085780548    1.97136342834692    0.27695072175523
H          -1.64863413767320    2.18266684930433    0.17814893271064
H           3.97249008596419   -1.06088034905584    0.07601939503918
H           3.90260664781814    1.99063504784208    0.37409130735696
H           5.36748623209141    0.90443263955291    0.32563660517372
