# ORCA input file
# SCF done        -27.022377053033          0.000856124404
! B3LYP/G D3BJ Opt RIJCOSX def2-SVP def2/J
* xyz 0 1
   C       -2.11954         0.06038        -0.04660
   N       -1.36443        -1.07925        -0.13012
   C       -0.05108        -0.72028        -0.04422
   C        1.26098        -1.20879        -0.04159
   C        2.08408        -0.09766         0.09846
   N        1.30822         1.03912         0.18146
   C        0.00121         0.67734         0.09342
   C       -1.31814         1.16678         0.09197
   C        3.51753        -0.08277         0.15581
   C        4.29585         0.99059         0.29189
   H       -3.19019         0.00943        -0.09221
   H       -1.72712        -2.01095        -0.22994
   H        1.59171        -2.22508        -0.12734
   H        1.66937         1.97136         0.27695
   H       -1.64863         2.18267         0.17815
   H        3.97249        -1.06088         0.07602
   H        3.90261         1.99064         0.37409
   H        5.36749         0.90443         0.32564
*
