# ORCA input file
# SCF done        -28.674195755936          0.000662496804
! B3LYP/G D3BJ Opt RIJCOSX def2-SVP def2/J
* xyz 0 1
   C       -0.26335         1.01375         0.17223
   N       -1.05299        -0.09267         0.15449
   C       -0.29048        -1.21407         0.08174
   C        1.04848        -0.80281         0.05314
   C        1.04003         0.61500         0.11175
   C        2.21775        -1.67053        -0.02080
   O        2.14849        -2.88212        -0.09703
   C        3.55424        -0.96139         0.00362
   C       -0.82460        -2.54904         0.05039
   C       -2.11668        -2.86971         0.06753
   H       -0.68387         1.99869         0.22639
   H       -2.05848        -0.08919         0.19237
   H        1.89283         1.26270         0.10694
   H        3.64699        -0.37228         0.91310
   H        3.63504        -0.29358        -0.85126
   H        4.35328        -1.69706        -0.03593
   H       -0.07106        -3.32136         0.00661
   H       -2.90818        -2.13781         0.10585
   H       -2.43326        -3.89723         0.04255
*
