19
 SCF done        -28.674195755936          0.000662496804
C          -0.26334776148480    1.01375257044873    0.17222851136532
N          -1.05298545712623   -0.09266626535114    0.15448952272836
C          -0.29047599724331   -1.21406957648901    0.08173969117077
C           1.04848087865342   -0.80281456768679    0.05314320079257
C           1.04003177602516    0.61499564423308    0.11175426658792
C           2.21775217834513   -1.67052779225669   -0.02079654327042
O           2.14848707884312   -2.88211592060877   -0.09703447139153
C           3.55423668503142   -0.96139110318098    0.00361566242873
C          -0.82459993988009   -2.54904487744217    0.05038952551413
C          -2.11668113647184   -2.86971389918753    0.06752908055300
H          -0.68386714498759    1.99869063303616    0.22639342640825
H          -2.05848220827418   -0.08919339627464    0.19237005991809
H           1.89283404772558    1.26269638291590    0.10693621921963
H           3.64698732724920   -0.37227713128809    0.91310358853490
H           3.63503993911914   -0.29358155954908   -0.85126047723824
H           4.35328465625791   -1.69706237313977   -0.03593061043566
H          -0.07106077246121   -3.32135815015453    0.00661349232541
H          -2.90817591283817   -2.13780994656992    0.10585089419987
H          -2.43325823648249   -3.89722867145461    0.04255496058904
