17
 SCF done        -29.222374513658          0.000529745139
C           2.35427755875305    0.82704493258651    0.19439060729527
N           1.23562465920015    1.48007945574463    0.14994588152765
C           0.11226127293931    0.72736290910970    0.03257064548016
C          -1.18121084089012    1.18058792970438   -0.03430007364986
S          -2.28190249800399   -0.11805816391380   -0.17744506524024
C          -1.04873911310572   -1.29732558343225   -0.15259693967733
C           0.19270829283217   -0.71607609489622   -0.03660267653493
N           1.37933230436702   -1.35603762654222    0.01273937994630
C           2.45042483543112   -0.60501790779158    0.12675638723531
C           3.71773996548085   -1.31735734662507    0.17878623461042
C           4.92453058880296   -0.77580050908080    0.29746493117610
H           3.24593600806164    1.43072522404467    0.28821887237767
H          -1.53090349618269    2.19213033749155   -0.00659928229486
H          -1.28673467287888   -2.33878202678908   -0.22240009374897
H           3.60283567611361   -2.39146668667699    0.11225978591160
H           5.08848078092919    0.28648463657347    0.36697647401583
H           5.80761867815037   -1.39083347950699    0.32821493156975
