# ORCA input file
# SCF done        -29.240045035308          0.000708159947
! B3LYP/G D3BJ Opt RIJCOSX def2-SVP def2/J
* xyz 0 2
   C       -0.55188        -1.38813         1.14301
   S       -0.20227         0.29140         1.11657
   C        1.24442         0.03414         0.16687
   C        1.44906        -1.30459        -0.07282
   C        0.39962        -2.14025         0.47377
   C        0.36839        -3.51976         0.32656
   S        1.57151        -4.42164        -0.51127
   C        2.73255        -3.20406        -0.92252
   C        2.59364        -1.88643        -0.70152
   C        1.99760         1.19480        -0.23763
   C        2.70558         1.31787        -1.35739
   H       -1.43296        -1.74236         1.63713
   H       -0.43442        -4.11574         0.72164
   H        3.61157        -3.61796        -1.38851
   H        3.40336        -1.22849        -0.97905
   H        1.91568         2.03970         0.43502
   H        2.76030         0.53752        -2.09633
   H        3.23487         2.22751        -1.58161
*
