# ORCA input file
# SCF done        -33.756406504536          0.000911885434
! B3LYP/G D3BJ Opt RIJCOSX def2-SVP def2/J
* xyz 0 1
   C       -1.25584         1.28595        -0.12339
   S       -2.45026         0.05801        -0.07658
   C       -1.26131        -1.21579         0.08782
   C        0.00606        -0.66626         0.10254
   C       -0.00754         0.75333        -0.01889
   C        1.29315         1.41287        -0.01466
   O        1.55337         2.57458        -0.10431
   S        2.54319         0.12056         0.15638
   C        1.34094        -1.23688         0.21804
   O        1.69503        -2.37346         0.33826
   C       -1.76811        -2.55922         0.17262
   C       -1.04441        -3.66932         0.30420
   H       -1.52953         2.31730        -0.22307
   H       -2.84832        -2.61990         0.11869
   H        0.02881        -3.65395         0.36214
   H       -1.52527        -4.63090         0.35714
*
