# ORCA input file
# SCF done        -33.671001481563          0.000710987827
! B3LYP/G D3BJ Opt RIJCOSX def2-SVP def2/J
* xyz 0 1
   C        1.53102         1.25821        -0.06064
   S        2.74910         0.09659        -0.39439
   C        1.59911        -1.17142        -0.29408
   C        0.34368        -0.72189        -0.01053
   C        0.30583         0.69636         0.12467
   C       -0.94773         1.46522         0.40000
   C       -2.08559         0.90418        -0.42887
   S       -2.42168        -0.74515         0.25687
   O       -2.75484        -0.58745         1.64614
   O       -3.36462        -1.43492        -0.58012
   C       -0.82588        -1.63236         0.14395
   H        1.78867         2.29753        -0.01753
   H        1.91299        -2.18507        -0.44452
   H       -0.78659         2.52506         0.19176
   H       -1.22460         1.35922         1.45369
   H       -1.83382         0.77744        -1.47789
   H       -3.00289         1.47619        -0.32532
   H       -0.91963        -2.31320        -0.69984
   H       -0.76289        -2.20998         1.06562
*
