# ORCA input file
# SCF done        -33.848935639104          0.000589259268
! B3LYP/G D3BJ Opt RIJCOSX def2-SVP def2/J
* xyz 0 1
   C        3.37527         0.20501        -0.00161
   C        3.02543        -1.14288         0.00123
   C        1.70199        -1.53844         0.00160
   C        0.72110        -0.55570        -0.00011
   C        1.08993         0.80451        -0.00072
   C        2.41506         1.20125        -0.00258
   O        0.00009         1.62048         0.00083
   C       -1.08861         0.80299         0.00211
   C       -0.71791        -0.55669         0.00076
   C       -1.69744        -1.54079        -0.00109
   C       -3.02141        -1.14705         0.00007
   C       -3.37313         0.20036         0.00373
   C       -2.41429         1.19791         0.00467
   H        4.41948         0.47937        -0.00314
   H        3.80593        -1.88913         0.00334
   H        1.43110        -2.58322         0.00413
   H        2.67992         2.24651        -0.00473
   H       -1.42511        -2.58519        -0.00427
   H       -3.80089        -1.89436        -0.00204
   H       -4.41772         0.47326         0.00589
   H       -2.68058         2.24282         0.00741
*
