# ORCA input file
# SCF done        -29.541093223393          0.000492453773
! B3LYP/G D3BJ Opt RIJCOSX def2-SVP def2/J
* xyz 0 1
   C        1.52085         1.18480        -0.19796
   S        2.72271        -0.04549        -0.17880
   C        1.51378        -1.25599        -0.00299
   C        0.25948        -0.73502         0.04307
   C        0.26315         0.68517        -0.07296
   C       -0.99772         1.49409        -0.09845
   C       -2.19037         0.67623         0.39983
   C       -2.22118        -0.71906        -0.24226
   O       -2.30258        -0.66175        -1.64706
   C       -0.99996        -1.52529         0.22218
   H        1.81729         2.20954        -0.30309
   H        1.80426        -2.28571         0.06053
   H       -1.18804         1.83192        -1.12303
   H       -0.87927         2.39116         0.51327
   H       -3.11532         1.20391         0.16431
   H       -2.13140         0.55282         1.48251
   H       -3.13552        -1.23840         0.06573
   H       -1.47397        -0.29628        -1.97937
   H       -0.94382        -2.46086        -0.33879
   H       -1.12312        -1.77874         1.27901
*
