20
 SCF done        -29.541093223393          0.000492453773
C           1.52084857459625    1.18480102500303   -0.19796179716155
S           2.72271447347008   -0.04548571742344   -0.17880276993117
C           1.51377757195082   -1.25599477348570   -0.00299364332632
C           0.25948403913535   -0.73502113979600    0.04307147468826
C           0.26315169379843    0.68517054873082   -0.07295684142280
C          -0.99771671246017    1.49408522171491   -0.09844652777764
C          -2.19037093243626    0.67622818768110    0.39983243137856
C          -2.22117844788112   -0.71905909950927   -0.24226424230218
O          -2.30258093421468   -0.66174899436374   -1.64706339379267
C          -0.99995679879380   -1.52529036976330    0.22217500580274
H           1.81728699032259    2.20954054306902   -0.30308547343948
H           1.80425528909436   -2.28570767860875    0.06052502143895
H          -1.18803721363186    1.83191822881326   -1.12303332944588
H          -0.87927220499067    2.39115929875197    0.51326902984358
H          -3.11531966195904    1.20391329199700    0.16431435013027
H          -2.13140006530651    0.55282487211478    1.48251342662895
H          -3.13551724519989   -1.23840444886494    0.06573181164141
H          -1.47397006864486   -0.29627853677215   -1.97936753617077
H          -0.94381973879005   -2.46085685935397   -0.33879346326603
H          -1.12311860805898   -1.77874359993458    1.27900646648381
