# ORCA input file
# SCF done        -41.409534103983          0.000386040388
! B3LYP/G D3BJ Opt RIJCOSX def2-SVP def2/J
* xyz 0 1
   C        1.61175         1.24261         0.01747
   S        2.82638         0.06654         0.33475
   C        1.63374        -1.16529         0.46605
   C        0.37503        -0.68948         0.27640
   C        0.36183         0.70994         0.01228
   C       -0.90146         1.45394        -0.28117
   C       -2.11393         0.70230         0.26982
   C       -2.07662        -0.76191        -0.23906
   O       -2.04307        -0.69592        -1.65036
   C       -2.39582        -1.88231        -2.31197
   C       -0.87718        -1.50481         0.36791
   N       -2.13757         0.79978         1.70670
   C       -3.23569         0.38247         2.42277
   C       -3.21399        -0.02475         3.68686
   H        1.89698         2.26148        -0.15300
   H        1.93620        -2.17121         0.68015
   H       -1.01884         1.53861        -1.36394
   H       -0.86535         2.45876         0.14329
   H       -3.02978         1.16597        -0.11554
   H       -3.00071        -1.27479         0.08095
   H       -2.43938        -1.63648        -3.37129
   H       -3.37708        -2.24491        -1.98077
   H       -1.65725        -2.67782        -2.16235
   H       -0.73725        -2.46459        -0.13369
   H       -1.10316        -1.72243         1.41682
   H       -1.24959         0.60803         2.15059
   H       -4.16857         0.47071         1.88115
   H       -2.29265        -0.11145         4.23745
   H       -4.11931        -0.25410         4.21541
*
