13
 SCF done        -27.716931500382          0.000246851604
C          -1.26131235148155   -0.12013361322436    0.00242716612196
S          -0.45472302714870    1.39688090749264   -0.12660497825383
C           1.06377781205713    0.65333279515198   -0.15391900822458
C           0.96621128720162   -0.71685362318616   -0.06686408271799
N           2.10444646501076   -1.54401491156471   -0.03377967590475
O           3.19523901331765   -1.01374398293771   -0.12271344147432
O           1.94140351195959   -2.75016726936789    0.09611596800405
C          -0.39421525721184   -1.18150186229588    0.01840491820560
N          -0.73796259417767   -2.49185599901196    0.04460477340523
H          -2.33000665076057   -0.15048383072688    0.05120382411124
H           1.97028059169241    1.22061024364295   -0.22437662935656
H           0.00840861851660   -3.15462974860912    0.19850689784028
H          -1.67798741897544   -2.74322910536291    0.28985426824367
