18
 SCF done        -37.085822176351          0.000488069497
C          -1.33330456106684   -1.40839164659433   -0.07563530599590
S          -2.48955447335651   -0.13836036958447   -0.01966776043311
C          -1.28156349952735    1.10412408041847    0.07731778640546
C          -0.01449044546940    0.53089673578803    0.06084143581359
C          -0.07250157755055   -0.90374823978146   -0.02622978543445
S           1.50083510138401   -1.64784139090749   -0.05267145438560
C           2.20503585767300   -0.05091446528728    0.04631083725215
N           3.61016568064790    0.03268379821246    0.06176694458862
O           4.10862302486283    1.13925318317147    0.13714022924593
O           4.22290332980072   -1.01584177280238   -0.00164035261666
C           1.32199376087774    0.98800620389713    0.09812470737290
C          -1.72131562086754    2.46710553211219    0.15672832194482
C          -0.95153257873288    3.54465282141881    0.30657617213390
H          -1.65168785320820   -2.42816717102130   -0.14099365239804
H           1.64721045241319    2.00970015309297    0.15406656852187
H          -2.79589375073049    2.58693338234823    0.09172355793566
H           0.11814943304333    3.49013953330631    0.39046838873882
H          -1.38617228019292    4.52724963221255    0.35558336130996
