# ORCA input file
# SCF done        -46.390541082061          0.000902863547
! B3LYP/G D3BJ Opt RIJCOSX def2-SVP def2/J
* xyz 0 1
   C        1.68627         1.13571         0.09682
   S        2.83375        -0.13557         0.09011
   C        1.58835        -1.30970         0.03360
   C        0.34876        -0.74560         0.02503
   C        0.40568         0.67420         0.05357
   C       -0.81640         1.53115         0.08383
   N       -1.06795         2.00171         1.47843
   O       -1.47567         3.12858         1.60661
   O       -0.88195         1.21471         2.37451
   C       -2.05331         0.74248        -0.36646
   C       -2.12594        -0.61379         0.32907
   C       -0.93601        -1.50234        -0.05682
   N       -1.15294        -1.96939        -1.45847
   O       -0.90851        -1.19198        -2.34902
   O       -1.58724        -3.08486        -1.59966
   H        2.01791         2.15449         0.13076
   H        1.83708        -2.35216         0.01183
   H       -0.69785         2.43350        -0.52283
   H       -1.98303         0.60582        -1.44794
   H       -2.95477         1.32102        -0.15622
   H       -3.05965        -1.11730         0.07150
   H       -2.10112        -0.48261         1.41329
   H       -0.91720        -2.40437         0.56166
*
