23
 SCF done        -46.390541082061          0.000902863547
C           1.68627258124257    1.13570580764686    0.09681899408256
S           2.83374539969216   -0.13556828215706    0.09010642231687
C           1.58835425886730   -1.30969777635338    0.03359722458194
C           0.34875889993430   -0.74560491966024    0.02502850828080
C           0.40567572766622    0.67420417612817    0.05357354298951
C          -0.81640132604588    1.53115173490073    0.08383364493010
N          -1.06794918980450    2.00171229040156    1.47842841944369
O          -1.47566890820478    3.12857712231086    1.60660586148688
O          -0.88194774439951    1.21471341114615    2.37450550228124
C          -2.05330825348848    0.74248054035242   -0.36645531420024
C          -2.12593991859184   -0.61378684706678    0.32907335134889
C          -0.93601258364596   -1.50234400481930   -0.05682337540271
N          -1.15294302477107   -1.96938631911060   -1.45846936143255
O          -0.90850617279215   -1.19197607079594   -2.34901512778654
O          -1.58724292441854   -3.08485663655192   -1.59966072583510
H           2.01790832822301    2.15449016068575    0.13075682058739
H           1.83707709217232   -2.35216097985435    0.01182579774596
H          -0.69784550092604    2.43349871806076   -0.52283367723009
H          -1.98303456540867    0.60581585901326   -1.44794158812505
H          -2.95476870335537    1.32101586371460   -0.15622014963796
H          -3.05964991655664   -1.11729724140166    0.07150374292509
H          -2.10112386308802   -0.48261297186259    1.41329159863455
H          -0.91719969230044   -2.40437363472734    0.56165988801478
