15
 SCF done        -21.447868522476          0.000368016833
C          -2.13423438150249   -0.04849085948893   -0.00541923879391
C          -1.33717661833638   -1.13171599565115    0.00053078470333
C           0.02091581139880   -0.67092764233740   -0.00011159481764
N           1.29166719324098   -1.14332755728210    0.00370961660876
C           2.13791272412414   -0.06994646077760    0.00047661608204
C           1.40834201983273    1.09737782134227   -0.00597081458471
C           0.05995610689282    0.71484306275657   -0.00594173659781
C          -1.33753695287488    1.23164458071423   -0.00965541349671
H          -3.20947246137280   -0.05001001526130   -0.00677613889595
H          -1.64960995788789   -2.16106087174414    0.00494390906152
H           1.57673406899278   -2.10821276359204    0.00801076562954
H           3.20162799983628   -0.20826999076470    0.00292225452600
H           1.81242926223911    2.09079129630707   -0.00971575185159
H          -1.56230817338688    1.83302976824444   -0.89307016827485
H          -1.56450664119633    1.84120562753476    0.86753691070197
