# ORCA input file
# SCF done        -21.447868522476          0.000368016833
! B3LYP/G D3BJ Opt RIJCOSX def2-SVP def2/J
* xyz 0 1
   C       -2.13423        -0.04849        -0.00542
   C       -1.33718        -1.13172         0.00053
   C        0.02092        -0.67093        -0.00011
   N        1.29167        -1.14333         0.00371
   C        2.13791        -0.06995         0.00048
   C        1.40834         1.09738        -0.00597
   C        0.05996         0.71484        -0.00594
   C       -1.33754         1.23164        -0.00966
   H       -3.20947        -0.05001        -0.00678
   H       -1.64961        -2.16106         0.00494
   H        1.57673        -2.10821         0.00801
   H        3.20163        -0.20827         0.00292
   H        1.81243         2.09079        -0.00972
   H       -1.56231         1.83303        -0.89307
   H       -1.56451         1.84121         0.86754
*
