# ORCA input file
# SCF done        -39.463475062189          0.000673405715
! B3LYP/G D3BJ Opt RIJCOSX def2-SVP def2/J
* xyz 0 1
   C        1.62680        -1.24063        -0.02157
   C        2.04588         0.05635        -0.02950
   C        3.45729         0.53190        -0.04048
   F        4.32355        -0.48976        -0.04137
   F        3.74333         1.28000        -1.11983
   F        3.75674         1.28954         1.02854
   S        0.74791         1.19282        -0.02587
   C       -0.38889        -0.11364        -0.01320
   C       -1.76318         0.13989        -0.00729
   N       -2.89408         0.33491         0.00213
   C        0.21657        -1.36164        -0.01222
   C       -0.54175        -2.59537        -0.00312
   C       -0.01388        -3.81501        -0.00303
   H        2.30589        -2.07300        -0.02275
   H       -1.61638        -2.46736         0.00524
   H        1.04833        -3.98890        -0.00829
   H       -0.63977        -4.68963         0.00701
*
