17
 SCF done        -39.463475062189          0.000673405715
C           1.62679861719838   -1.24063101695662   -0.02157424160622
C           2.04587543789784    0.05635219467269   -0.02949811259285
C           3.45729205581589    0.53190438346982   -0.04048459243968
F           4.32355268045781   -0.48976334752398   -0.04137400249724
F           3.74332705806376    1.28000237625815   -1.11983465692275
F           3.75674269675999    1.28954059947591    1.02853754359675
S           0.74790813776761    1.19282166515139   -0.02586776150664
C          -0.38888576683988   -0.11363679111267   -0.01320449067927
C          -1.76317862682104    0.13989280186501   -0.00728584590673
N          -2.89407838137933    0.33491077348001    0.00213047631599
C           0.21657085881329   -1.36164453574429   -0.01222307469863
C          -0.54174529251054   -2.59536764329948   -0.00312166143131
C          -0.01387688126642   -3.81500693046935   -0.00302940455088
H           2.30589057519772   -2.07299636581690   -0.02274526924365
H          -1.61637627777845   -2.46736140395777    0.00523668646290
H           1.04832886360958   -3.98890030135294   -0.00829230852160
H          -0.63976575498623   -4.68962645813901    0.00701071622181
