35
 SCF done        -45.598954561696          0.000409475740
C           3.45218139789119    0.15777691673118    0.07382167594449
C           2.53313857646236    1.19901137571671    0.06664180992768
C           1.18881235147986    0.89815886975231    0.02473553104438
C           0.76057992558818   -0.43700294496191   -0.00985623658298
C           1.67947888910194   -1.47260083421852   -0.00265705009322
C           3.02937890597646   -1.16179039116004    0.03948606566197
C          -0.69330430062022   -0.45335812620257   -0.04972038273175
C          -1.15221061109965    0.87198541254207   -0.03942949321614
C           0.00732721022881    1.83944486413577    0.00799535546308
C           0.03012991552861    2.74649182495643   -1.23611935900629
C           0.10249847851892    1.95639470118039   -2.53735575834116
C          -0.03825538980633    2.70656008143468    1.27953105302617
C          -0.03708901973956    1.87552188914558    2.55706147981163
C          -2.50314004812492    1.14287951187855   -0.07137299987212
C          -3.39802665391611    0.08160724514078   -0.11392616083718
C          -2.94491120338584   -1.22823693452161   -0.12434285500478
C          -1.58813801987138   -1.50903789430435   -0.09231374672328
H           4.50923152095723    0.37901294180227    0.10650056953258
H           2.87346827131800    2.22428362453965    0.09354477902738
H           1.35322867732282   -2.50182614867263   -0.02932147670609
H           3.76182054885099   -1.95608456350381    0.04571155520747
H           0.89245206816793    3.41373539570835   -1.16894444957503
H          -0.87085904241601    3.36409650298083   -1.23597389228412
H           1.00935762734284    1.35650698092915   -2.57172768109961
H           0.10479684484317    2.63398618545949   -3.38819910200430
H          -0.75212513780009    1.28954975945972   -2.62926705615482
H          -0.93797921968193    3.32528381444766    1.24966157650068
H           0.82630861501693    3.37427965437383    1.28086198960751
H          -0.89531394817353    1.20740693431504    2.58082425475468
H          -0.08154243779730    2.52581909076137    3.42782574401458
H           0.86667052335670    1.27347549562171    2.62196437298195
H          -2.86757183708753    2.16019904676970   -0.06369256824952
H          -4.45991230876343    0.27943048575006   -0.13929766298631
H          -3.65884787559578   -2.03855390977080   -0.15786522049279
H          -1.23837329407335   -2.53082685821703   -0.10054466054472
