12
 SCF done        -29.665423657702          0.000714297538
C           0.10448118702551    1.21494435016401   -0.00482299426624
S          -1.09003238311232   -0.01384555658861   -0.01328426954198
C           0.13813213949301   -1.22498022225207   -0.00980394997374
C          -0.19867624606823   -2.67191936310257   -0.01378934363143
F          -1.51644193116866   -2.90385444369783   -0.03296649377893
F           0.31984829131149   -3.31362025056987   -1.07872462474941
F           0.28803262139800   -3.31253150019204    1.06689085102658
C           1.39475579113956   -0.69095754527109   -0.00205204682333
C           1.36971759763443    0.71791127763397    0.00076768853586
H          -0.20188417570861    2.24214471894620   -0.00424693343754
H           2.29034355042117   -1.28533583650551    0.00125096707920
H           2.25333355763466    1.32916437143540    0.00668114956096
