# ORCA input file
# SCF done        -29.665423657702          0.000714297538
! B3LYP/G D3BJ Opt RIJCOSX def2-SVP def2/J
* xyz 0 1
   C        0.10448         1.21494        -0.00482
   S       -1.09003        -0.01385        -0.01328
   C        0.13813        -1.22498        -0.00980
   C       -0.19868        -2.67192        -0.01379
   F       -1.51644        -2.90385        -0.03297
   F        0.31985        -3.31362        -1.07872
   F        0.28803        -3.31253         1.06689
   C        1.39476        -0.69096        -0.00205
   C        1.36972         0.71791         0.00077
   H       -0.20188         2.24214        -0.00425
   H        2.29034        -1.28534         0.00125
   H        2.25333         1.32916         0.00668
*
