# ORCA input file
# SCF done        -28.683495993125          0.000342496074
! B3LYP/G D3BJ Opt RIJCOSX def2-SVP def2/J
* xyz 0 1
   C       -1.58146        -1.14947         0.16575
   S       -2.72571         0.11719         0.23537
   C       -1.51148         1.31135         0.14006
   C       -0.25393         0.75969         0.05684
   C       -0.29243        -0.68110         0.06666
   C        0.92965        -1.42282        -0.00520
   C        0.89347        -2.87904        -0.01248
   C        1.88385        -3.67591         0.37202
   C        2.10069        -0.71305        -0.08661
   C        2.13192         0.69789        -0.09558
   C        0.98867         1.43270        -0.02707
   H       -1.92970        -2.16154         0.20795
   H       -1.77838         2.34894         0.15429
   H       -0.03467        -3.31858        -0.35328
   H        2.81600        -3.29372         0.75210
   H        1.79131        -4.74766         0.33353
   H        3.03691        -1.24385        -0.16942
   H        3.09028         1.19141        -0.16580
   H        1.00494         2.51211        -0.03813
*
