33
 SCF done        -44.547641888011          0.000716221660
C          -3.44071461948802    0.23664888846576   -0.01374274867060
C          -2.53228359692944   -0.81354203150121   -0.03918462896063
C          -1.18449688059095   -0.52734705422028   -0.02185622642077
C          -0.74245521018771    0.80344374417314    0.02110109460762
C          -1.65131273572454    1.84868014023640    0.04590403647615
C          -3.00433469597744    1.55171968847714    0.02789533877392
C           0.70983493621760    0.80522318945427    0.03265352671265
C           1.15835794932677   -0.52341200258225   -0.00358585371092
C          -0.01136291332611   -1.48171400817052   -0.04559536658644
C          -0.00023647232424   -2.30728991191504   -1.33608694327804
C          -0.01952267562650   -2.40155130924979    1.17895220250064
C           2.50336930682586   -0.80557909954129   -0.00155466519343
C           3.43610575610672    0.23851667476672    0.04271319917118
C           2.97260745902228    1.55668594250461    0.07303439354462
C           1.62208420117296    1.84817741204432    0.06819581512086
C           4.85344739727536   -0.09798960817740    0.05163609861331
C           5.87170516227295    0.73697512596421    0.22816098231613
H          -4.50033361785128    0.02621301295471   -0.02677795108650
H          -2.88443823233524   -1.83459627556549   -0.07191544493798
H          -1.31338719106721    2.87394147614871    0.07878831434946
H          -3.72877873763592    2.35318199436683    0.04665953637410
H           0.00237471166594   -1.64929830804267   -2.20267038074762
H          -0.88098363068463   -2.94344270734223   -1.38548340862193
H           0.88624710344969   -2.93611927024822   -1.37481417002942
H          -0.02610165273976   -1.81089252759192    2.09277094876426
H           0.86432631691975   -3.03528631256214    1.18146875749876
H          -0.90269691557557   -3.03619512907697    1.16908862388683
H           2.85282390158305   -1.82858562994042   -0.02892657469624
H           3.68340864999937    2.36833165365578    0.09313924755723
H           1.28510419113630    2.87420917085344    0.08992989376499
H           5.06421687051297   -1.15124192714173   -0.09230461200130
H           5.74062212920700    1.79320028447659    0.39070878691616
H           6.88953373536964    0.38630471432682    0.22138817799296
