# ORCA input file
# SCF done        -44.547641888011          0.000716221660
! B3LYP/G D3BJ Opt RIJCOSX def2-SVP def2/J
* xyz 0 1
   C       -3.44071         0.23665        -0.01374
   C       -2.53228        -0.81354        -0.03918
   C       -1.18450        -0.52735        -0.02186
   C       -0.74246         0.80344         0.02110
   C       -1.65131         1.84868         0.04590
   C       -3.00433         1.55172         0.02790
   C        0.70983         0.80522         0.03265
   C        1.15836        -0.52341        -0.00359
   C       -0.01136        -1.48171        -0.04560
   C       -0.00024        -2.30729        -1.33609
   C       -0.01952        -2.40155         1.17895
   C        2.50337        -0.80558        -0.00155
   C        3.43611         0.23852         0.04271
   C        2.97261         1.55669         0.07303
   C        1.62208         1.84818         0.06820
   C        4.85345        -0.09799         0.05164
   C        5.87171         0.73698         0.22816
   H       -4.50033         0.02621        -0.02678
   H       -2.88444        -1.83460        -0.07192
   H       -1.31339         2.87394         0.07879
   H       -3.72878         2.35318         0.04666
   H        0.00237        -1.64930        -2.20267
   H       -0.88098        -2.94344        -1.38548
   H        0.88625        -2.93612        -1.37481
   H       -0.02610        -1.81089         2.09277
   H        0.86433        -3.03529         1.18147
   H       -0.90270        -3.03620         1.16909
   H        2.85282        -1.82859        -0.02893
   H        3.68341         2.36833         0.09314
   H        1.28510         2.87421         0.08993
   H        5.06422        -1.15124        -0.09230
   H        5.74062         1.79320         0.39071
   H        6.88953         0.38630         0.22139
*
