# ORCA input file
# SCF done        -49.131260365585          0.000525241087
! B3LYP/G D3BJ Opt RIJCOSX def2-SVP def2/J
* xyz 0 1
   C       -2.47134         0.59308        -0.44908
   C       -2.70694        -0.91076        -0.42990
   O       -3.63164        -1.50689        -0.89150
   O       -1.69038        -1.51321         0.21290
   C       -0.67712        -0.57946         0.56871
   C       -1.40883         0.77471         0.63246
   C       -0.51083         1.99855         0.49889
   C        0.44797         1.90705        -0.68055
   C        1.26958         0.62364        -0.70366
   C        0.45743        -0.66392        -0.47820
   O        1.41657        -1.62513        -0.05609
   C        2.53959        -1.04920         0.40196
   O        3.46431        -1.67076         0.82786
   C        2.42316         0.47594         0.30407
   C        2.20042         1.00890         1.68809
   C        2.89448         2.00607         2.20597
   H       -3.39750         1.13016        -0.25785
   H       -2.10760         0.87370        -1.43896
   H       -0.28259        -0.89764         1.53769
   H       -1.91844         0.82554         1.60142
   H        0.05928         2.12277         1.41910
   H       -1.14129         2.88166         0.38074
   H        1.12862         2.75936        -0.65724
   H       -0.11552         1.96525        -1.61433
   H        1.72374         0.54020        -1.69866
   H        0.02113        -1.03977        -1.41020
   H        3.35163         0.89534        -0.08801
   H        1.45641         0.49528         2.28193
   H        3.65772         2.52032         1.64537
   H        2.72813         2.34917         3.21239
*
