30
 SCF done        -49.131260365585          0.000525241087
C          -2.47133579591967    0.59307563535708   -0.44908391152335
C          -2.70694023331355   -0.91076320900209   -0.42990115393860
O          -3.63163715820665   -1.50688849826106   -0.89150368130740
O          -1.69037595104556   -1.51320509645982    0.21289738905218
C          -0.67712345849057   -0.57945747048294    0.56870508831884
C          -1.40883398781264    0.77470883808869    0.63245904211995
C          -0.51082607891387    1.99854758419813    0.49889481548370
C           0.44797025301259    1.90704776032464   -0.68055097642557
C           1.26957619969552    0.62363993501228   -0.70366105152425
C           0.45743385048855   -0.66392484521395   -0.47820261930370
O           1.41657278136991   -1.62513165689692   -0.05608627794967
C           2.53958705217540   -1.04919974023589    0.40196475874876
O           3.46431280662880   -1.67075879312361    0.82785766347397
C           2.42315743312807    0.47594270782216    0.30406859640324
C           2.20041630981568    1.00889655525308    1.68808811395906
C           2.89447800945991    2.00606847306268    2.20597244615534
H          -3.39749566050834    1.13016090039398   -0.25784539235942
H          -2.10760346520883    0.87369962579448   -1.43896141594250
H          -0.28259028902714   -0.89764008555086    1.53768690989970
H          -1.91843585903664    0.82554476550995    1.60141961678237
H           0.05928065609315    2.12277319142264    1.41910185039538
H          -1.14128767148374    2.88166368238885    0.38073959135763
H           1.12861929530052    2.75936240205171   -0.65724431440753
H          -0.11551582308064    1.96525145905266   -1.61433236800437
H           1.72373664443319    0.54020248874472   -1.69865593841032
H           0.02113140907225   -1.03976513854354   -1.41020392293697
H           3.35162873104892    0.89533709697437   -0.08800889629563
H           1.45640977418060    0.49528491227803    2.28193228981233
H           3.65771946503657    2.52032427843987    1.64537131209973
H           2.72813076110851    2.34917224160098    3.21239243626734
