12
 SCF done        -16.987767339895          0.000336351214
C          -1.58676966365364    0.16327937107297    0.00856525175926
S          -0.15460138436545    1.11658504242949    0.01747332268117
C           0.84154955180061   -0.30304939769570    0.00746935598763
C           2.32636007413055   -0.19050063592958    0.01138262513531
C           0.07883611696875   -1.42895424162676   -0.00124331319359
C          -1.31007211118637   -1.16347063947468    0.00067088813039
H          -2.54145718213192    0.65029190321756    0.01085672789061
H           2.62936955999862    0.85317262679820   -0.00669384996143
H           2.74939106652135   -0.69218352571831   -0.85894740862919
H           2.74249887099423   -0.65842919557454    0.90380070735588
H           0.49457056725838   -2.42123900897016   -0.00773772501761
H          -2.06440546633512   -1.93011229852850   -0.00456658213843
