# ORCA input file
# SCF done        -16.987767339895          0.000336351214
! B3LYP/G D3BJ Opt RIJCOSX def2-SVP def2/J
* xyz 0 1
   C       -1.58677         0.16328         0.00857
   S       -0.15460         1.11659         0.01747
   C        0.84155        -0.30305         0.00747
   C        2.32636        -0.19050         0.01138
   C        0.07884        -1.42895        -0.00124
   C       -1.31007        -1.16347         0.00067
   H       -2.54146         0.65029         0.01086
   H        2.62937         0.85317        -0.00669
   H        2.74939        -0.69218        -0.85895
   H        2.74250        -0.65843         0.90380
   H        0.49457        -2.42124        -0.00774
   H       -2.06441        -1.93011        -0.00457
*
