16
 SCF done        -20.355561780178          0.000328791580
C          -1.13326836237414   -0.04363614094440   -0.00643028440714
N          -0.32638580613533    1.04885051927061   -0.04028461396463
C          -0.76692475663565    2.41679431095082   -0.01479152967759
C          -0.90999432265511    2.93631556129271    1.41602493787046
C           0.96693514822669    0.63377755419822   -0.01180725486840
C           0.98838301675196   -0.73350131042914    0.02734264349783
C          -0.35164319014952   -1.16570088621118    0.02914390285947
H          -2.20132322433056    0.05642927690049   -0.02022316738986
H          -1.72986221177553    2.48334626902992   -0.52996095863365
H          -0.04113880876834    3.02870555188737   -0.55902073908351
H          -1.63435851195311    2.33749082757449    1.96303768550934
H          -1.24388022123414    3.97061102147241    1.40842358298807
H           0.04430117057568    2.87924824194835    1.93422667009306
H           1.77515426746478    1.33905250452551   -0.03071891624573
H           1.86105161876257   -1.35635049515787    0.04741174383378
H          -0.69584580577026   -2.18101280630830    0.05089629761849
