16
 SCF done        -31.339455003557          0.000642348539
C          -0.47307052632649    1.63615897787505    0.30024255884405
S          -1.35815027838877    0.18160783719262    0.29556269686746
C           0.06349138064283   -0.73282960125921   -0.04288813858872
C           1.16451687417716    0.06099499396256   -0.14534325662254
C           0.85897437362301    1.44959780395874    0.05467889115360
C           1.80425217930159    2.59238877535614    0.01812568403493
O           1.44555877655692    3.72555794481189    0.20131760345552
O           3.08493187637487    2.29682615353344   -0.22902732566162
O           2.44394491048122   -0.33294677074241   -0.40548275136046
C           2.67160257229657   -1.71282897533376   -0.58971708192730
H          -0.95410484627038    2.57629472634396    0.48203481110954
H          -0.01316376957646   -1.79609494610584   -0.14252747140205
H           3.21954663450016    1.34192121394535   -0.35464493545320
H           3.73627166370940   -1.81400885075529   -0.79091885385454
H           2.09870535108899   -2.09562720054219   -1.43877618643031
H           2.41188282780937   -2.27705208224107    0.31036375583565
