# ORCA input file
# SCF done        -22.465373369138          0.000355184076
! B3LYP/G D3BJ Opt RIJCOSX def2-SVP def2/J
* xyz 0 1
   C       -0.11082        -1.08695         0.14327
   N       -1.35452        -0.53300         0.18050
   C       -1.24310         0.80862         0.04474
   C        0.09187         1.13651        -0.08679
   C        0.81576        -0.09348        -0.02194
   C        2.28892        -0.30719        -0.09854
   C        0.55013         2.49819        -0.25229
   C        1.78876         2.92489        -0.47127
   H        0.03132        -2.14605         0.23677
   H       -2.21560        -1.04115         0.29140
   H       -2.10440         1.44809         0.04552
   H        2.80274         0.27355         0.66648
   H        2.67465        -0.00973        -1.07335
   H        2.51677        -1.36017         0.05412
   H       -0.24842         3.22994        -0.19059
   H        2.63074         2.26310        -0.55281
   H        2.00063         3.97551        -0.58122
*
