# ORCA input file
# SCF done        -48.954932561273          0.000403496054
! B3LYP/G D3BJ Opt RIJCOSX def2-SVP def2/J
* xyz 0 1
   C       -2.76499         0.75316         0.12298
   C       -1.51273         1.34460        -0.51961
   C       -0.27002         0.74057         0.11926
   C       -0.25530        -0.77048        -0.08675
   C       -1.50117        -1.36404         0.59051
   C       -2.76975        -0.76710        -0.01038
   N        0.94538        -1.44061         0.40805
   C        1.42984        -2.49019        -0.46344
   C        2.18325        -2.05622        -1.72844
   C        1.88744        -0.60167         1.11548
   C        2.50632         0.55273         0.31020
   S        1.22654         1.47524        -0.63320
   C        3.26597         1.48459         1.24571
   C        4.38438         0.71583         1.94561
   C        3.82350        -0.48892         2.69632
   C        3.03089        -1.39341         1.75515
   H       -3.65362         1.17344        -0.35144
   H       -2.78986         1.02417         1.18112
   H       -1.49572         2.42901        -0.39401
   H       -1.50651         1.13351        -1.59122
   H       -0.25799         0.99621         1.18181
   H       -0.34146        -0.94058        -1.16970
   H       -1.45557        -1.15456         1.66091
   H       -1.49377        -2.44766         0.46433
   H       -3.64828        -1.18140         0.48834
   H       -2.82781        -1.03599        -1.06784
   H        2.06341        -3.15681         0.12558
   H        0.54856        -3.06664        -0.75975
   H        3.20211        -1.75536        -1.49863
   H        1.67923        -1.22248        -2.21190
   H        2.22765        -2.88563        -2.43042
   H        1.32114        -0.15633         1.94589
   H        3.18956         0.16709        -0.44850
   H        2.57566         1.89520         1.98682
   H        3.67872         2.31936         0.67599
   H        4.90837         1.37668         2.63872
   H        5.10576         0.37424         1.19938
   H        3.17176        -0.14332         3.50216
   H        4.63984        -1.05611         3.14840
   H        2.61311        -2.23645         2.30790
   H        3.69926        -1.78131         0.98507
*
