41
 SCF done        -48.954932561273          0.000403496054
C          -2.76498693551478    0.75315758520437    0.12298236420116
C          -1.51273225601975    1.34460035514406   -0.51960976015927
C          -0.27002459882821    0.74057135354490    0.11926411738661
C          -0.25529820773878   -0.77048133755890   -0.08674956048869
C          -1.50117326299974   -1.36404321145908    0.59051018880293
C          -2.76974915438146   -0.76709656047991   -0.01037784464418
N           0.94537875810569   -1.44060576105010    0.40805174408501
C           1.42984078121658   -2.49019080587153   -0.46343757920701
C           2.18324678683875   -2.05622396612187   -1.72844407000895
C           1.88744441491716   -0.60167201923098    1.11547676711476
C           2.50632488436301    0.55273431397307    0.31020187811090
S           1.22653597046489    1.47524218780809   -0.63320303354178
C           3.26597307966081    1.48459494093716    1.24570729367890
C           4.38438232088058    0.71583032482793    1.94560638085797
C           3.82350469199937   -0.48892319462845    2.69631660289606
C           3.03089237438626   -1.39341214361502    1.75514547497483
H          -3.65362378337816    1.17344219112944   -0.35143706763450
H          -2.78985622388042    1.02416672895790    1.18112132366870
H          -1.49571867515050    2.42900652986344   -0.39401317613472
H          -1.50651012202148    1.13351228423338   -1.59122313538212
H          -0.25799435250870    0.99621248146751    1.18180846011355
H          -0.34145582669265   -0.94057666483970   -1.16970497807980
H          -1.45557420200475   -1.15455975652044    1.66091059635169
H          -1.49377462792259   -2.44765607923067    0.46433207325261
H          -3.64827671988933   -1.18139899140547    0.48833728813405
H          -2.82780515500247   -1.03599402893400   -1.06783904526475
H           2.06340923589102   -3.15681142194871    0.12558246447167
H           0.54855805327443   -3.06664299794353   -0.75974970569470
H           3.20211089191348   -1.75535597548095   -1.49862606046774
H           1.67923412461092   -1.22248054314753   -2.21189619335805
H           2.22764855395239   -2.88562718901128   -2.43041805205837
H           1.32113598293158   -0.15633098171117    1.94588788664522
H           3.18955605305458    0.16709202363210   -0.44850367668019
H           2.57566040109281    1.89519762117302    1.98682170829069
H           3.67871998936466    2.31935794752695    0.67599266139986
H           4.90837353530118    1.37668420347816    2.63871552420135
H           5.10575674494874    0.37424307385947    1.19938492907387
H           3.17176251806165   -0.14332444304965    3.50216206593777
H           4.63984491297222   -1.05611184228984    3.14839930742463
H           2.61310765923891   -2.23645274004474    2.30790461810215
H           3.69926138449314   -1.78131349118764    0.98506921962728
