# ORCA input file
# SCF done        -32.332055280878          0.000752124058
! B3LYP/G D3BJ Opt RIJCOSX def2-SVP def2/J
* xyz 0 1
   C        1.36426         0.66781         0.20535
   N        0.22935        -0.05752         0.05293
   C        0.51695        -1.39508         0.09885
   C       -0.51369        -2.37730        -0.03857
   C       -0.32359        -3.70964        -0.00206
   C       -1.35595        -4.69002        -0.14077
   N       -1.07319        -6.02832        -0.08854
   C       -2.20976        -6.75029        -0.24491
   C       -3.25288        -5.87400        -0.40203
   C       -2.72261        -4.57781        -0.33747
   C        1.88512        -1.50328         0.28711
   C        2.41129        -0.20547         0.35314
   H        1.35053         1.73996         0.19848
   H       -0.69399         0.32159        -0.07529
   H       -1.51526        -1.99347        -0.18192
   H        0.67748        -4.09441         0.14212
   H       -0.15208        -6.41033         0.04690
   H       -2.19989        -7.82244        -0.23401
   H       -4.28291        -6.13378        -0.54737
   H       -3.27722        -3.66517        -0.42513
   H        2.44339        -2.41436         0.36774
   H        3.44128         0.05749         0.49310
*
