22
 SCF done        -36.237303990017          0.000568917749
C          -2.79904918116840    0.45261332799843    0.02911446623113
C          -3.15344905811788   -0.84645223757928   -0.05311027158700
S          -1.80297140949016   -1.92935149405109   -0.12221543197879
C          -0.70460626179858   -0.58747671381951   -0.03889042145585
C          -1.38550779139956    0.64004510308254    0.03796913697734
C          -0.65903288804537    1.83567172610541    0.10286807238136
C           0.72036192035241    1.84076482255761    0.07116995194025
C           1.40877911215631    0.60269515878324    0.03597984851611
C           0.68342201957575   -0.60173582284836   -0.02397406885813
S           1.72631054085927   -1.99029470500820   -0.04418025371919
C           3.11424781233496   -0.96384505516398    0.06874255493268
C           2.81078870342459    0.35061639037311    0.10347108164232
C           1.42217038963529    3.12434908088181    0.06004936199455
C           2.47900400085167    3.41266836178395   -0.68637655770657
H          -3.50144390221057    1.26516500819697    0.08062940174805
H          -4.14147190358630   -1.26297493910347   -0.07927856899034
H          -1.19813237320135    2.77066781709229    0.14945582019166
H           4.08483593586229   -1.41861386697369    0.10698072717319
H           3.54879831549581    1.12512487126150    0.20184604605645
H           0.97697192440332    3.89409833380768    0.67893616822933
H           2.91654486676654    2.69550476570478   -1.36069210432422
H           2.92829922730004    4.39130006691834   -0.67144495939427
