28
 SCF done        -40.121828559720          0.000479803705
C           1.48559999524973   -1.32573076136023    0.13917508919774
S           2.71951163578174   -0.13911797316126    0.19828385734192
C           1.53996650651971    1.14731835772917    0.19128223993049
C           0.26263381978197    0.64151563747353    0.12423660307696
C           0.23840596694575   -0.77908668759685    0.08371364193888
C          -1.03721707589153   -1.56522755047400    0.00401670075372
C          -1.32361774358980   -2.09367199453905   -1.40771391579850
O          -2.41024658003771   -1.99536810375101   -1.91560219664037
C          -0.17577500519400   -2.77984603708119   -2.09907005351453
C          -2.20680075016439   -0.71269673036089    0.50169315905728
C          -2.21718905311790    0.62348357336941   -0.23293695881879
C          -0.99204238622279    1.45616194084783    0.13705847988314
C           2.05426972265019    2.49211670583966    0.24996382178545
C           1.38916209602349    3.61282597939831    0.51778800991190
H           1.75772569850245   -2.36240473697982    0.15742932786315
H          -0.93726642433158   -2.46411025534253    0.62697606124683
H           0.61251440892701   -2.05857384143050   -2.30279935865613
H          -0.52102051370336   -3.20879508467487   -3.03621987781913
H           0.23542346573874   -3.56282184588605   -1.46737417504858
H          -2.10820651312976   -0.54624427088266    1.57648995029751
H          -3.14001895091098   -1.24516376380243    0.31496898295243
H          -3.12084249129289    1.18062214822230    0.01949288685657
H          -2.23226772073410    0.43704382354640   -1.30745951759277
H          -1.12675912846923    1.86308358832984    1.14534630723331
H          -0.89225537910629    2.29945732959789   -0.55057076194154
H           3.12102366783622    2.55336000643853    0.06966916715256
H           0.34017140813865    3.63940568165773    0.74382889230198
H           1.90168732380076    4.55936486487296    0.53178363704835
