28
 SCF done        -40.121165937805          0.000422353235
C           1.40313456869914   -1.40170884156847    0.04786980466187
S           2.65286925786334   -0.23319218316926   -0.05911856568351
C           1.49706203904337    1.07319193043074    0.02837870427195
C           0.21639433536695    0.58664687029793    0.15036289783972
C           0.17231619270931   -0.83290267609431    0.16104971749933
C          -1.10666577597976   -1.59577572923793    0.31401061296228
C          -2.28897656077836   -0.73432994460800   -0.12994738166947
C          -2.36511820542197   -0.46314300132368   -1.62897448363323
O          -2.89657840144138    0.52883487191936   -2.06127588366207
C          -1.78206753952329   -1.51250685584555   -2.53898091342836
C          -2.24736222535391    0.58492591732021    0.64937768622956
C          -1.02580247422984    1.41490825588702    0.25029156011536
C           2.02721051966645    2.41161571882679   -0.02497358715588
C           1.35996069269049    3.54493145489362   -0.22625058780718
H           1.64862762065267   -2.44534894458183    0.02654622181010
H          -1.24292282646194   -1.84389507625326    1.37238948580315
H          -1.05564247706240   -2.54017751013233   -0.22877197043026
H          -3.22172529912272   -1.26168738440220    0.11172362644145
H          -0.69953302206826   -1.52628532260009   -2.42483711885480
H          -2.02742559634943   -1.27398457875940   -3.57090286563187
H          -2.16986594308064   -2.49712576369816   -2.28816045166873
H          -2.21633032800814    0.36271324940568    1.71790623340776
H          -3.14896585458994    1.16291945497609    0.44485743277058
H          -0.87541004080867    2.21991092338787    0.97394822205579
H          -1.21951173763750    1.87559705865476   -0.72299642249325
H           3.10303093133858    2.45579323073978    0.09962521109677
H           0.30054970377866    3.58498465432326   -0.39659644379209
H           1.88118844610924    4.48680022121120   -0.24524074105511
