# ORCA input file
# SCF done        -42.451695536829          0.000473012599
! B3LYP/G D3BJ Opt RIJCOSX def2-SVP def2/J
* xyz 0 1
   C       -0.26721         1.41516         0.59368
   S       -1.62153         0.36893         0.67552
   C       -0.79121        -0.90935        -0.11180
   C        0.48945        -0.54612        -0.42751
   C        0.79704         0.79765        -0.00703
   N        2.04239         1.31247        -0.17472
   C        2.93958         0.54649        -0.73140
   C        2.57796        -0.75374        -1.30174
   N        3.46909        -1.44213        -2.07333
   C        3.03029        -2.60200        -2.81166
   N        1.39548        -1.27703        -1.12814
   N        4.22040         1.04872        -0.83865
   C        4.40470         2.48151        -0.74072
   C        5.33535         0.24006        -0.71965
   C        6.59815         0.64413        -0.82357
   H       -0.31774         2.40031         1.00934
   H       -1.28485        -1.84102        -0.29595
   H        4.20468        -0.89970        -2.50092
   H        2.37577        -3.18357        -2.16708
   H        3.90163        -3.19243        -3.08921
   H        2.47228        -2.33164        -3.71354
   H        3.42603         2.94481        -0.65461
   H        4.91312         2.85049        -1.63391
   H        4.99970         2.73330         0.13871
   H        5.11631        -0.79206        -0.48547
   H        6.88237         1.65704        -1.03988
   H        7.39767        -0.05997        -0.68724
*
