19
 SCF done        -26.279647098034          0.000119300695
C           0.78287270171160   -1.07962598791171   -0.12990826238588
C           0.65650761643411    0.29687736701590    0.02125173235458
O           1.67743788410946    1.19130468819741   -0.07140595745503
C           2.98012330804754    0.72021786128708   -0.35003956579568
C           3.90562496518408    1.92573277643546   -0.40489600666650
C          -0.60144302122695    0.83989808679404    0.29040337472424
C          -1.70521340621749    0.02189590445605    0.40435897425990
C          -1.57807638783831   -1.35061842048539    0.25288316710810
C          -0.33453192902216   -1.89083525548686   -0.01293540968863
H           1.74061546575519   -1.53091023927431   -0.33765251742852
H           2.99227320442019    0.18925832995489   -1.31252878747576
H           3.30807636838823    0.02680096518632    0.43744331389569
H           3.58117350062371    2.60705257097316   -1.18660051651555
H           4.92221502493151    1.60286537169920   -0.61071465317433
H           3.88278203290800    2.45320453096346    0.54472826805687
H          -0.68175831945709    1.90949522170029    0.40519068302556
H          -2.67196885177679    0.45615916689065    0.61239837321673
H          -2.44236882231780   -1.99107461273143    0.34168404907447
H          -0.22288133465703   -2.95874832566419   -0.13274025913026
