# ORCA input file
# SCF done        -26.279647098034          0.000119300695
! B3LYP/G D3BJ Opt RIJCOSX def2-SVP def2/J
* xyz 0 1
   C        0.78287        -1.07963        -0.12991
   C        0.65651         0.29688         0.02125
   O        1.67744         1.19130        -0.07141
   C        2.98012         0.72022        -0.35004
   C        3.90562         1.92573        -0.40490
   C       -0.60144         0.83990         0.29040
   C       -1.70521         0.02190         0.40436
   C       -1.57808        -1.35062         0.25288
   C       -0.33453        -1.89084        -0.01294
   H        1.74062        -1.53091        -0.33765
   H        2.99227         0.18926        -1.31253
   H        3.30808         0.02680         0.43744
   H        3.58117         2.60705        -1.18660
   H        4.92222         1.60287        -0.61071
   H        3.88278         2.45320         0.54473
   H       -0.68176         1.90950         0.40519
   H       -2.67197         0.45616         0.61240
   H       -2.44237        -1.99107         0.34168
   H       -0.22288        -2.95875        -0.13274
*
