# ORCA input file
# SCF done        -29.296638935321          0.000289990994
! B3LYP/G D3BJ Opt RIJCOSX def2-SVP def2/J
* xyz 0 1
   C       -0.28552         0.96735         0.04073
   O       -1.00881        -0.14595        -0.01220
   C       -0.14801        -1.19085        -0.12991
   C        1.14077        -0.72434        -0.15257
   C        1.05962         0.69146        -0.04104
   C        2.13498         1.69011        -0.01519
   O        1.90619         2.87459         0.08691
   C        3.53309         1.13505        -0.12529
   C       -0.64846        -2.54087        -0.21106
   C       -1.93736        -2.86353        -0.17978
   H       -0.79819         1.90447         0.13526
   H        2.02590        -1.32025        -0.23751
   H        3.63672         0.58227        -1.05647
   H        3.72362         0.45393         0.70121
   H        4.25432         1.94723        -0.10146
   H        0.11778        -3.29784        -0.30255
   H       -2.70010        -2.10918        -0.08839
   H       -2.26528        -3.88569        -0.24385
*
