# ORCA input file
# SCF done        -12.047990107742          0.000200818433
! B3LYP/G D3BJ Opt RIJCOSX def2-SVP def2/J
* xyz 0 1
   C        0.97335        -0.01526         0.08514
   C        0.23380        -0.94090        -0.52000
   N        2.34848        -0.17380         0.12236
   N        2.96373         0.74460         0.71270
   H        0.55000         0.86938         0.55737
   H        0.69966        -1.79934        -0.97353
   H       -0.83766        -0.86496        -0.57684
   H        3.97394         0.54555         0.69189
*
