# ORCA input file
# SCF done        -24.276578376923          0.000671719844
! B3LYP/G D3BJ Opt RIJCOSX def2-SVP def2/J
* xyz 0 1
   C        2.24922         0.04851        -0.00014
   S        1.46070        -1.48996        -0.00100
   C       -0.06289        -0.72089         0.00095
   C        0.04746         0.65451         0.00228
   C        1.37967         1.10030         0.00098
   C       -1.32953         1.20850         0.00478
   O       -1.67918         2.36220         0.00586
   C       -2.21121        -0.00679         0.00274
   C       -1.46075        -1.11843         0.00171
   H        3.32088         0.07632        -0.00044
   H        1.68302         2.13109         0.00179
   H       -3.28275         0.06074         0.00277
   H       -1.79877        -2.13909         0.00098
*
