13
 SCF done        -24.276578376923          0.000671719844
C           2.24922472327079    0.04851221576899   -0.00013551974935
S           1.46069691464959   -1.48995852410165   -0.00100018547224
C          -0.06288561005349   -0.72089177053153    0.00094838014518
C           0.04746363018766    0.65450507551910    0.00228102055432
C           1.37967274716740    1.10029944527529    0.00097772248540
C          -1.32952732238517    1.20850345286291    0.00478346091826
O          -1.67918123527172    2.36220477947119    0.00585515156981
C          -2.21121314807375   -0.00679321175097    0.00274234400847
C          -1.46075210741395   -1.11842845397772    0.00170794700041
H           3.32088095801089    0.07632386518357   -0.00044111377951
H           1.68302099043310    2.13109018662174    0.00178951013941
H          -3.28275324926400    0.06074117644867    0.00277357668460
H          -1.79876729125735   -2.13908823678958    0.00097770549523
