19
 SCF done        -37.306154236475          0.000989988727
C          -1.48550121469364   -1.25028624853240    0.21388711082168
S          -2.66625480047449   -0.03337678002280    0.28388866024683
C          -1.50725192867810    1.21806790451085    0.15237676695078
C          -0.22580634111342    0.72221220912373    0.05717610398376
C          -0.21329442825987   -0.72058627975518    0.09473242936639
C           1.01162575512718   -1.39246269705761    0.01106877772817
C           2.18758055681274   -0.68503134415288   -0.11023828260071
N           3.38297131903587   -1.45445131854042   -0.19847691185666
O           3.30482765200518   -2.65392706628061   -0.01427215200925
O           4.44049527867737   -0.89594348203304   -0.46033879549682
C           2.19520848387850    0.75854449280016   -0.15249782843215
N           3.35362252946180    1.45606052244200   -0.22730319555894
C           0.98700788869131    1.42174486385129   -0.06673340620064
H          -1.76532203935957   -2.28306995573483    0.26486187052134
H          -1.82474508314302    2.24063560522873    0.15356302784167
H           1.04734691101160   -2.47109008813555    0.03456950298003
H           4.21583969895125    0.96244586322863   -0.39912206564422
H           3.31189397739314    2.45350436482620   -0.33001180889958
H           0.97367578467613    2.50063943423374   -0.09401980374166
