# ORCA input file
# SCF done        -32.551463433949          0.000588446902
! B3LYP/G D3BJ Opt RIJCOSX def2-SVP def2/J
* xyz 0 1
   C       -0.01590         1.49000         0.40024
   S       -1.29564         0.38271         0.11711
   C       -0.18423        -0.85545        -0.26053
   C        1.11589        -0.43885        -0.17425
   C        2.24338        -1.34140        -0.45758
   O        3.41517        -1.05146        -0.44058
   O        1.81130        -2.58203        -0.75532
   C        2.82437        -3.53228        -1.04617
   C        1.22247         0.94221         0.21533
   C        2.48278         1.64340         0.38492
   C        2.61494         2.90369         0.78219
   H       -0.25732         2.49299         0.68787
   H       -0.53617        -1.83107        -0.52885
   H        2.31222        -4.42660        -1.39143
   H        3.40924        -3.74920        -0.14959
   H        3.49521        -3.14901        -1.81792
   H        3.35913         1.05281         0.16286
   H        1.77471         3.53326         1.02224
   H        3.58753         3.35283         0.88347
*
