16
 SCF done        -22.272219540476          0.000389059853
C           1.59037617022290   -0.15808594177358    0.02416787550752
C           0.36285369966545    0.21644090878532    0.40565318486221
C          -0.26788742136303    1.50288337829476    0.77548995448625
S          -1.99141962819352    1.37473538100504    0.12977051911970
C          -1.72243493026625   -0.26261889932006   -0.65891945039833
C          -0.60972432266924   -0.90127407488521    0.15626920090923
C           0.25584543818982   -1.95362367226375   -0.46219827124361
C           1.52317054597804   -1.51948029956006   -0.48009445077388
H           2.48985371221614    0.42957861935686    0.05606043252279
H           0.22202036385442    2.36396430642211    0.32217927966014
H          -0.33389583141333    1.65347577246123    1.85459855554368
H          -1.41399613389371   -0.10441527077475   -1.69262758353836
H          -2.66390104456119   -0.80529338517201   -0.63144564280098
H          -1.02305797386262   -1.27009118440100    1.10216362118580
H          -0.11275010815626   -2.91384755551736   -0.77080915829388
H           2.38084746425240   -2.06068808265755   -0.83873806674828
