# ORCA input file
# SCF done        -22.272219540476          0.000389059853
! B3LYP/G D3BJ Opt RIJCOSX def2-SVP def2/J
* xyz 0 1
   C        1.59038        -0.15809         0.02417
   C        0.36285         0.21644         0.40565
   C       -0.26789         1.50288         0.77549
   S       -1.99142         1.37474         0.12977
   C       -1.72243        -0.26262        -0.65892
   C       -0.60972        -0.90127         0.15627
   C        0.25585        -1.95362        -0.46220
   C        1.52317        -1.51948        -0.48009
   H        2.48985         0.42958         0.05606
   H        0.22202         2.36396         0.32218
   H       -0.33390         1.65348         1.85460
   H       -1.41400        -0.10442        -1.69263
   H       -2.66390        -0.80529        -0.63145
   H       -1.02306        -1.27009         1.10216
   H       -0.11275        -2.91385        -0.77081
   H        2.38085        -2.06069        -0.83874
*
