11
 SCF done        -18.010288381506          0.000928167742
C           2.51772385272812    0.77895365801338    0.52666518882172
C           2.11422728476705   -0.28440562257344   -0.19520914897331
C           2.72019424654212   -1.24003272460744    0.77733367444285
C           3.05925461902595   -2.42011432660574    1.29278371639783
S           3.94877900049096   -2.16008958384005    2.79920889179349
C           3.81911902619415   -0.40113557721053    2.66728395637860
C           3.15059068384727   -0.09520260604626    1.55700581227133
H           2.43415296619170    1.84355797090500    0.43253232436245
H           1.57360866531565   -0.42735988958595   -1.10981605362931
H           2.89357580982211   -3.42805590145094    0.96872596371306
H           4.26097384507491    0.19951460300200    3.43695567442128
