# ORCA input file
# SCF done        -18.010288381506          0.000928167742
! B3LYP/G D3BJ Opt RIJCOSX def2-SVP def2/J
* xyz 0 1
   C        2.51772         0.77895         0.52667
   C        2.11423        -0.28441        -0.19521
   C        2.72019        -1.24003         0.77733
   C        3.05925        -2.42011         1.29278
   S        3.94878        -2.16009         2.79921
   C        3.81912        -0.40114         2.66728
   C        3.15059        -0.09520         1.55701
   H        2.43415         1.84356         0.43253
   H        1.57361        -0.42736        -1.10982
   H        2.89358        -3.42806         0.96873
   H        4.26097         0.19951         3.43696
*
