# ORCA input file
# SCF done        -22.260251835627          0.000722198770
! B3LYP/G D3BJ Opt RIJCOSX def2-SVP def2/J
* xyz 0 1
   C       -1.17890         0.02886         0.00173
   C       -0.45624         1.17271         0.00092
   F       -0.93702         2.41402         0.00189
   S        1.26145         0.92778        -0.00165
   C        0.96571        -0.78189        -0.00160
   F        1.99875        -1.62144        -0.00334
   C       -0.34505        -1.11734         0.00011
   H       -2.25215         0.00045         0.00328
   H       -0.70247        -2.12973         0.00029
*
