16
 SCF done        -27.114380639498          0.000760400283
C          -1.43944885847519    1.25520032452049    0.15222520331829
C          -0.17547527230994    0.72498835287706    0.05922201042422
C          -0.19019219596724   -0.72169563067036    0.06513194315104
N           0.96380477024082   -1.42840934139244   -0.01779694133545
C           2.05138190326029   -0.72496034549696   -0.10209889821043
C           2.07928177637297    0.70763898629874   -0.11139419977464
C           3.37736480755352    1.44022260147317   -0.21464454233139
N           0.98557906317996    1.41480048978115   -0.03153804300221
C          -1.46333688136501   -1.22844240163235    0.16151600390856
S          -2.61890401083979    0.02414029487909    0.24639234051207
H          -1.72442643805192    2.28708342397980    0.17012446674215
H           2.97664851167699   -1.28297455836832   -0.16827696819496
H           4.21316604440734    0.74909094989070   -0.27993573717767
H           3.50661306258667    2.08263603110987    0.65443358899570
H           3.36828018397651    2.08099237585500   -1.09442081165725
H          -1.76643646624600   -2.25508155310466    0.18674058463199
