# ORCA input file
# SCF done        -27.114380639498          0.000760400283
! B3LYP/G D3BJ Opt RIJCOSX def2-SVP def2/J
* xyz 0 1
   C       -1.43945         1.25520         0.15223
   C       -0.17548         0.72499         0.05922
   C       -0.19019        -0.72170         0.06513
   N        0.96380        -1.42841        -0.01780
   C        2.05138        -0.72496        -0.10210
   C        2.07928         0.70764        -0.11139
   C        3.37736         1.44022        -0.21464
   N        0.98558         1.41480        -0.03154
   C       -1.46334        -1.22844         0.16152
   S       -2.61890         0.02414         0.24639
   H       -1.72443         2.28708         0.17012
   H        2.97665        -1.28297        -0.16828
   H        4.21317         0.74909        -0.27994
   H        3.50661         2.08264         0.65443
   H        3.36828         2.08099        -1.09442
   H       -1.76644        -2.25508         0.18674
*
