# ORCA input file
# SCF done        -23.404567556981          0.000393846038
! B3LYP/G D3BJ Opt RIJCOSX def2-SVP def2/J
* xyz 0 1
   C       -1.53178         1.23276         0.15959
   C       -0.25835         0.72015         0.07198
   C       -0.25835        -0.72015         0.07198
   C        0.97310        -1.41615        -0.01299
   C        2.13140        -0.70894        -0.09304
   C        2.13140         0.70894        -0.09304
   C        0.97310         1.41615        -0.01299
   C       -1.53178        -1.23276         0.15959
   S       -2.71037         0.00000         0.24276
   H       -1.83265         2.26103         0.18003
   H        0.96840        -2.49611        -0.01293
   H        3.07813        -1.22471        -0.15906
   H        3.07813         1.22471        -0.15906
   H        0.96840         2.49611        -0.01293
   H       -1.83265        -2.26103         0.18003
*
