15
 SCF done        -23.404567556981          0.000393846038
C          -1.53178124191248    1.23276092177776    0.15959346031708
C          -0.25834696004244    0.72014721132416    0.07198013841918
C          -0.25834696037820   -0.72014721523094    0.07198013830749
C           0.97310259894369   -1.41614970617686   -0.01299197144775
C           2.13140343089660   -0.70893536199611   -0.09303723187327
C           2.13140343195102    0.70893536685672   -0.09303723298888
C           0.97310259558354    1.41614970318883   -0.01299197162633
C          -1.53178124745188   -1.23276092899006    0.15959346002963
S          -2.71036997144837    0.00000001305735    0.24275795393734
H          -1.83264923313392    2.26103237497137    0.18002786151651
H           0.96839855663975   -2.49611477794743   -0.01293152785320
H           3.07812784524352   -1.22471407881047   -0.15905970455134
H           3.07812784655388    1.22471408299282   -0.15905970536786
H           0.96839854962058    2.49611477545229   -0.01293152782665
H          -1.83264924106527   -2.26103238046945    0.18002786100803
