39
 SCF done        -50.878685600630          0.000437262849
C           3.50184272975496    0.10583190190987    0.02867398799875
C           2.58954903958205    1.15303668560263    0.04661430918929
C           1.24279321077127    0.86185187794097    0.02230299357090
C           0.80567643126683   -0.47084106312258   -0.02009513757041
C           1.71810388178334   -1.51265676823884   -0.03739206532590
C           3.07023041371716   -1.21082371660525   -0.01258369110205
C          -0.64637128876470   -0.47744241459085   -0.03810313693359
C          -1.09955665019269    0.85081611115711   -0.00672245152719
C           0.06714791854340    1.81074709851982    0.03395481726854
C           0.07941525530919    2.73464018529474   -1.19784518795980
C           0.09671369654170    1.96487118298899   -2.51292581976303
C           0.04760555872612    2.66308646226179    1.31641163332643
C           0.01612373954561    1.81954468166921    2.58516697882749
C          -2.44368331980952    1.13622224949028   -0.01351527389116
C          -3.37282712536672    0.08953543178715   -0.05227484556765
C          -2.90512439884750   -1.22754136092896   -0.09141544842853
C          -1.55469025057383   -1.52222709250943   -0.08187219737404
C          -4.81132223101383    0.31920403195509   -0.05549022351486
C          -5.43257295392231    1.47784945186079    0.13165431461598
H           4.56065299772616    0.32004445852550    0.04698157251855
H           2.93774032336012    2.17552768224604    0.07853919713763
H           1.38443109033601   -2.53934007897586   -0.06929389594076
H           3.79762570797457   -2.00968787773840   -0.02547066675236
H           0.95976782760017    3.37892877964061   -1.14307078482234
H          -0.80510732095497    3.37468509537233   -1.16476269755441
H           0.97569522241036    1.32669379993905   -2.57192521335850
H           0.11553789006703    2.65659125827026   -3.35230165796154
H          -0.78800752749304    1.33820439886130   -2.60183818003069
H          -0.82985465169219    3.31316409921416    1.29189280911707
H           0.93473589528686    3.30026429761949    1.32640198790852
H          -0.87622559379117    1.19805992620943    2.61035778305337
H           0.01403364995097    2.46201374672808    3.46294731087836
H           0.88718930595470    1.16993682885633    2.63506044478217
H          -2.78325203788215    2.16048660530794    0.00346958435839
H          -3.62373595734931   -2.03483521786851   -0.12493553288351
H          -1.21776337511100   -2.54804876299491   -0.10948538629435
H          -5.40771311034181   -0.57111282289586   -0.21622018367026
H          -4.90741016774852    2.39953740711781    0.31367996628732
H          -6.50689382535300    1.54554144012281    0.11720998738816
