# ORCA input file
# SCF done        -30.917506583037          0.000514999431
! B3LYP/G D3BJ Opt RIJCOSX def2-SVP def2/J
* xyz 0 1
   C        3.23586        -0.37173         0.00051
   C        2.21747        -1.25433         0.00122
   C        0.85563        -0.87253         0.00134
   C        0.47557         0.55793         0.00068
   C        1.35814         1.57889        -0.00009
   S        3.06119         1.35725        -0.00038
   C       -0.94361         0.55755         0.00102
   C       -1.40768        -0.76137         0.00181
   C       -2.81941        -0.82886         0.00219
   C       -3.37924         0.40865         0.00170
   S       -2.22823         1.70421         0.00078
   C       -0.28235        -1.63816         0.00199
   H        4.26960        -0.67315         0.00046
   H        2.44933        -2.31103         0.00174
   H        1.05301         2.61356        -0.00057
   H       -3.39036        -1.74013         0.00279
   H       -4.42241         0.65906         0.00182
   H       -0.32690        -2.71117         0.00255
*
