19
 SCF done        -32.915186681551          0.000900226807
C          -1.56475851251707    1.23907698850873   -0.06387201369967
S          -2.70534973435581   -0.02295368273648   -0.10703212031210
C          -1.48746767866578   -1.25252861255916   -0.02309031407397
C          -0.22041979592090   -0.67555051231487    0.00320042888472
C          -0.27318924692494    0.76358827638548   -0.00988045115253
C           0.92262554242375    1.52288830690685    0.02188762611158
C           2.12190833866203    0.88372770150524    0.03872653054829
C           2.15676666947028   -0.52784668800560    0.00392947756189
F           3.37375443743844   -1.11657813770768   -0.01832883007518
C           1.04347378443965   -1.30928895479425   -0.01681086151192
C          -1.92155090449364   -2.62310473267133    0.02520689838669
C          -1.25176019694333   -3.65326788647752    0.53671306172194
H          -1.89101296882516    2.25965117774912   -0.07662945915553
H           0.86124783790521    2.60017217727017    0.02518947984307
H           3.05630902102156    1.42162018377201    0.06118374330237
H           1.13297354269958   -2.38038926306334   -0.07542353410248
H          -2.91962244327247   -2.78610160953804   -0.36288175827612
H          -0.28789028591701   -3.54795676843561    0.99835837143446
H          -1.67272740622431   -4.64329796379379    0.52925372456456
