30
 SCF done        -49.133994343520          0.000576039946
C          -2.44853062664936   -0.59318458471165   -0.27748763352092
C          -2.66017392392714    0.91071355244804   -0.38781168211488
O          -3.59625380661228    1.47836833280408   -0.86177134462246
O          -1.60647235723995    1.55118685775908    0.15019725835911
C          -0.59155671212814    0.63633708053554    0.54462758236445
C          -1.33679790688473   -0.69381048837452    0.76363433846484
C          -0.45034964680007   -1.93120921639377    0.69867055353679
C           0.41856448684671   -1.96145986919163   -0.55129945512643
C           1.27251812284475   -0.70905025668211   -0.69695462858125
C           0.50473215019552    0.61531562953302   -0.54841555301014
O           1.50436315087191    1.56867343872396   -0.21023004158598
C           2.57718864073990    0.98220071738566    0.34809811870362
O           3.50409341290638    1.59410120032900    0.78172890056717
C           2.39967196062804   -0.54177766937251    0.32823435830959
C           3.66829116446779   -1.24666643788453   -0.02671097314410
C           4.31844559630283   -2.05589797666014    0.78745160849779
H          -2.14032967646205   -0.96965899703530   -1.25410559319523
H          -3.37220898245730   -1.09169512313175    0.00724333515426
H          -0.14807831663817    1.02635699480025    1.46596125496210
H          -1.79877327979100   -0.65009287563601    1.75651213288160
H          -1.08230538364450   -2.82016590729763    0.72588309344618
H           0.18254020863795   -1.95480865219529    1.58756063807592
H          -0.21127849470901   -2.06284503293546   -1.43704393529492
H           1.07765416387486   -2.83062708146291   -0.51773867180436
H           1.73023738211121   -0.71589508792784   -1.69344946010130
H           0.05313035244499    0.94608672651561   -1.48913586686788
H           2.07926599373545   -0.84239099828415    1.33079966307338
H           4.04709029164431   -1.04250618709142   -1.01897589800649
H           3.96583103855005   -2.26752261784051    1.78333399779060
H           5.23574099714108   -2.53543547072501    0.49449390278888
