# ORCA input file
# SCF done        -49.133994343520          0.000576039946
! B3LYP/G D3BJ Opt RIJCOSX def2-SVP def2/J
* xyz 0 1
   C       -2.44853        -0.59318        -0.27749
   C       -2.66017         0.91071        -0.38781
   O       -3.59625         1.47837        -0.86177
   O       -1.60647         1.55119         0.15020
   C       -0.59156         0.63634         0.54463
   C       -1.33680        -0.69381         0.76363
   C       -0.45035        -1.93121         0.69867
   C        0.41856        -1.96146        -0.55130
   C        1.27252        -0.70905        -0.69695
   C        0.50473         0.61532        -0.54842
   O        1.50436         1.56867        -0.21023
   C        2.57719         0.98220         0.34810
   O        3.50409         1.59410         0.78173
   C        2.39967        -0.54178         0.32823
   C        3.66829        -1.24667        -0.02671
   C        4.31845        -2.05590         0.78745
   H       -2.14033        -0.96966        -1.25411
   H       -3.37221        -1.09170         0.00724
   H       -0.14808         1.02636         1.46596
   H       -1.79877        -0.65009         1.75651
   H       -1.08231        -2.82017         0.72588
   H        0.18254        -1.95481         1.58756
   H       -0.21128        -2.06285        -1.43704
   H        1.07765        -2.83063        -0.51774
   H        1.73024        -0.71590        -1.69345
   H        0.05313         0.94609        -1.48914
   H        2.07927        -0.84239         1.33080
   H        4.04709        -1.04251        -1.01898
   H        3.96583        -2.26752         1.78333
   H        5.23574        -2.53544         0.49449
*
