17
 SCF done        -37.805674033297          0.000424234576
C          -1.49000774299368    1.24027439281499   -0.18538948429709
S          -2.73239151130679    0.07361350269843   -0.11295612535415
C          -1.60255645327631   -1.23135682350054    0.09295528307716
C          -0.31159938967207   -0.74344139724858    0.09725455631797
C          -0.25716533568962    0.66316983552479   -0.06055292511125
O           0.86503961376102    1.43674801273121   -0.08700666082406
C           2.12379074783686    0.99093958880767    0.01139890130015
O           3.02719869149139    1.77715749614268   -0.00399578018134
C           2.44359575392435   -0.49622875519163    0.13991898233350
O           3.58029402463251   -0.87426797768226    0.17917542831742
S           1.15155549384664   -1.70508411832799    0.25450045673575
C          -2.13142539107372   -2.56305330271748    0.22470420533652
C          -1.43864237554937   -3.67726384943869    0.44542493266869
H          -1.70376013128190    2.28124762325829   -0.31295575932498
H          -3.20888368332037   -2.61050605882397    0.13385206713323
H          -0.36877232564459   -3.68742699152419    0.55071978526805
H          -1.93957998568451   -4.62542117752302    0.52997213660465
