# ORCA input file
# SCF done        -37.805674033297          0.000424234576
! B3LYP/G D3BJ Opt RIJCOSX def2-SVP def2/J
* xyz 0 1
   C       -1.49001         1.24027        -0.18539
   S       -2.73239         0.07361        -0.11296
   C       -1.60256        -1.23136         0.09296
   C       -0.31160        -0.74344         0.09725
   C       -0.25717         0.66317        -0.06055
   O        0.86504         1.43675        -0.08701
   C        2.12379         0.99094         0.01140
   O        3.02720         1.77716        -0.00400
   C        2.44360        -0.49623         0.13992
   O        3.58029        -0.87427         0.17918
   S        1.15156        -1.70508         0.25450
   C       -2.13143        -2.56305         0.22470
   C       -1.43864        -3.67726         0.44542
   H       -1.70376         2.28125        -0.31296
   H       -3.20888        -2.61051         0.13385
   H       -0.36877        -3.68743         0.55072
   H       -1.93958        -4.62542         0.52997
*
