# ORCA input file
# SCF done        -25.207874114150          0.000752462051
! B3LYP/G D3BJ Opt RIJCOSX def2-SVP def2/J
* xyz 0 1
   C       -0.37130         1.34720        -0.13459
   O       -1.29024         0.37098        -0.15040
   C       -0.63245        -0.79480        -0.02045
   C        0.70388        -0.58326         0.08020
   C        0.89373         0.83093         0.00560
   C        2.15949         1.51469         0.06949
   C        2.32607         2.84352        -0.00676
   C        3.61110         3.48825         0.06253
   C        3.78080         4.80639        -0.01473
   H       -0.72672         2.35387        -0.22856
   H       -1.21974        -1.69182        -0.01336
   H        1.46992        -1.32311         0.19256
   H        3.02467         0.87476         0.18905
   H        1.46702         3.48931        -0.12641
   H        4.46826         2.83750         0.18341
   H        2.94351         5.47425        -0.13710
   H        4.75420         5.26250         0.03785
*
