17
 SCF done        -25.207874114150          0.000752462051
C          -0.37130270945759    1.34719532769989   -0.13459236616443
O          -1.29024068531538    0.37097905625122   -0.15040205959266
C          -0.63245004025974   -0.79480377289429   -0.02045234692854
C           0.70388133144972   -0.58325918814615    0.08019610111935
C           0.89372588651148    0.83092626733430    0.00559914664514
C           2.15948658939702    1.51468596004130    0.06948956559245
C           2.32607271425806    2.84351520558494   -0.00675591193630
C           3.61109801679440    3.48824606728577    0.06253249548333
C           3.78079988505246    4.80639007882087   -0.01473350281085
H          -0.72672225795114    2.35387380297739   -0.22855787980928
H          -1.21973994539513   -1.69181764852998   -0.01336289789613
H           1.46992159848592   -1.32310871686893    0.19255842672852
H           3.02466805203360    0.87476132426401    0.18905392278825
H           1.46702302833374    3.48931094454871   -0.12640814657185
H           4.46825999797748    2.83750037761509    0.18341050398140
H           2.94351405544493    5.47424971538798   -0.13710310731565
H           4.75420448264015    5.26249519862790    0.03784805668723
