32
 SCF done        -43.966417559181          0.000373577173
C          -1.13792895564383    1.48125965334329   -0.17816137037783
C          -2.32592461066619    0.80122881740985   -0.18261608189498
C          -2.35884701019557   -0.59690974153657   -0.12927651382563
C          -1.20510518330715   -1.35190822272108   -0.06837010205333
C           0.03947676088511   -0.65949326566293   -0.05601775422107
C           0.06738727631072    0.75817721760419   -0.11439259447196
N           1.24523248069169    1.41634587731075   -0.10793510175897
C           2.35607661670436    0.72767967261490   -0.05057102758123
C           3.62544184446123    1.52696413716014    0.00033487087062
C           4.03176724459473    1.78598486939389    1.45303750592019
C           2.33028292261683   -0.69628030301180    0.00554677968922
C           3.57060730304837   -1.54165956373675    0.01463436447334
C           4.00426468944564   -1.85245424905454   -1.41999751128166
N           1.19572657370911   -1.34868320523122    0.00334260663450
C          -1.18108683863734   -2.80549671908223   -0.01622517303163
C          -2.22677375850535   -3.61787448886837   -0.12332133915447
H          -1.09158566131633    2.55806918232001   -0.22030844919554
H          -3.25883208616957    1.34459145879214   -0.22798053359428
H          -3.31920164143905   -1.08942097597100   -0.13250522154701
H           3.43898894746055    2.48308894670445   -0.49058104201674
H           4.42898790907059    1.01134613266970   -0.52579043692546
H           3.24283950888966    2.33050552161803    1.96608012287470
H           4.94346677928126    2.37777360042612    1.48811448918809
H           4.20379638043190    0.85181159478138    1.98413232533238
H           3.33746227281519   -2.47770447450543    0.52435696760866
H           4.37887230544052   -1.04231092791600    0.54829873292534
H           3.20690529741885   -2.37548916605171   -1.94251441443731
H           4.89104075587708   -2.48191947524075   -1.41707556510272
H           4.22908386424389   -0.93836112098673   -1.96613430205051
H          -0.18876420884962   -3.21614719443081    0.11042297683195
H          -3.23367110339885   -3.26211744062410   -0.26514022080496
H          -2.10907667526790   -4.68690614751755   -0.07645698702129
