# ORCA input file
# SCF done        -43.966417559181          0.000373577173
! B3LYP/G D3BJ Opt RIJCOSX def2-SVP def2/J
* xyz 0 1
   C       -1.13793         1.48126        -0.17816
   C       -2.32592         0.80123        -0.18262
   C       -2.35885        -0.59691        -0.12928
   C       -1.20511        -1.35191        -0.06837
   C        0.03948        -0.65949        -0.05602
   C        0.06739         0.75818        -0.11439
   N        1.24523         1.41635        -0.10794
   C        2.35608         0.72768        -0.05057
   C        3.62544         1.52696         0.00033
   C        4.03177         1.78598         1.45304
   C        2.33028        -0.69628         0.00555
   C        3.57061        -1.54166         0.01463
   C        4.00426        -1.85245        -1.42000
   N        1.19573        -1.34868         0.00334
   C       -1.18109        -2.80550        -0.01623
   C       -2.22677        -3.61787        -0.12332
   H       -1.09159         2.55807        -0.22031
   H       -3.25883         1.34459        -0.22798
   H       -3.31920        -1.08942        -0.13251
   H        3.43899         2.48309        -0.49058
   H        4.42899         1.01135        -0.52579
   H        3.24284         2.33051         1.96608
   H        4.94347         2.37777         1.48811
   H        4.20380         0.85181         1.98413
   H        3.33746        -2.47770         0.52436
   H        4.37887        -1.04231         0.54830
   H        3.20691        -2.37549        -1.94251
   H        4.89104        -2.48192        -1.41708
   H        4.22908        -0.93836        -1.96613
   H       -0.18876        -3.21615         0.11042
   H       -3.23367        -3.26212        -0.26514
   H       -2.10908        -4.68691        -0.07646
*
