17
 SCF done        -27.156513529923          0.000849962127
C          -0.23004501682064    1.04814385099984    0.01249809204244
O          -1.04377828369084   -0.02283186567939    0.05668043298843
C          -0.27903241318969   -1.12396455616453   -0.09258419972652
C           1.04144720429914   -0.76157208304205   -0.23138885881081
C           1.07025948761625    0.65287132176095   -0.16502741895195
O           2.12201989428902    1.50644699018857   -0.25256747330301
C           3.38373288628989    0.91004532750076   -0.44188778764148
C          -0.87416733377927   -2.43605351020048   -0.09642070807499
C          -2.17831088185972   -2.66927347366017    0.01976291687205
H          -0.66863400900831    2.01867208659939    0.11597317199474
H           1.86648225358290   -1.43117865944468   -0.36278683176694
H           4.09660005378750    1.73045076046486   -0.50210400823910
H           3.41711328785681    0.33167318538993   -1.37054771765602
H           3.64799005247817    0.25957480682501    0.39794042819065
H          -0.16825183722744   -3.24791938600802   -0.20556191373053
H          -2.88088942183590   -1.86061310959634    0.12592977329126
H          -2.57715592278783   -3.66808168593359    0.01041210252181
