14
 SCF done        -28.463635875710          0.000747122858
C          -1.45597674052816   -1.21224927043418    0.14400644776915
S          -2.66372804473145   -0.01312601019071    0.22509192771429
C          -1.53772192543466    1.26706389606861    0.14759518731931
C          -0.25318890408603    0.79117706692735    0.05982927023934
C          -0.19941472659975   -0.65594008470293    0.05737744615134
N           0.97290384612687   -1.32127980639672   -0.02245674788876
C           2.04310680816422   -0.59047338465441   -0.09649169678936
N           2.12394805883045    0.75390489860346   -0.10305959410479
C           1.01256619254939    1.44043236925507   -0.02756272684443
C           1.06731655611486    2.86118804916573   -0.03310771779946
N           1.05605169119000    4.00651686913213   -0.03209070851320
H          -1.70975594254994   -2.25203205854432    0.16217332713626
H          -1.86696235902114    2.28687171365363    0.16938884995220
H           2.99135548997533   -1.10686424788271   -0.16035326434189
