# ORCA input file
# SCF done        -28.463635875710          0.000747122858
! B3LYP/G D3BJ Opt RIJCOSX def2-SVP def2/J
* xyz 0 1
   C       -1.45598        -1.21225         0.14401
   S       -2.66373        -0.01313         0.22509
   C       -1.53772         1.26706         0.14760
   C       -0.25319         0.79118         0.05983
   C       -0.19941        -0.65594         0.05738
   N        0.97290        -1.32128        -0.02246
   C        2.04311        -0.59047        -0.09649
   N        2.12395         0.75390        -0.10306
   C        1.01257         1.44043        -0.02756
   C        1.06732         2.86119        -0.03311
   N        1.05605         4.00652        -0.03209
   H       -1.70976        -2.25203         0.16217
   H       -1.86696         2.28687         0.16939
   H        2.99136        -1.10686        -0.16035
*
