27
 SCF done        -45.098599144322          0.000990044383
C           1.30078213462730   -1.35435537019815    0.22298551159654
S           2.57543911134982   -0.21315234149569    0.15388057710019
C           1.44621144276276    1.10322045007476   -0.02793900384452
C           0.15000459380452    0.64252212520945   -0.01687612375707
C           0.07552697890798   -0.76729412211193    0.12718833840273
C          -1.21832189124284   -1.51966797917379    0.21681235401611
C          -2.40304216128075   -0.67654804289666   -0.28336301338422
C          -2.47926061071143   -0.65319136112652   -1.80495551126958
O          -2.38614885264065    0.32380893261263   -2.48754038207313
O          -2.70081413072917   -1.85461031848300   -2.36629848095049
C          -2.33564679638525    0.74566032197177    0.31496246295953
O          -2.43940360040035    0.69376925834390    1.71942035289438
C          -1.07627495336173    1.48881700144850   -0.13922426721201
C           1.99576002198933    2.43048760972264   -0.14686287083504
C           1.38564865686518    3.51716416887286   -0.61099384276296
H           1.52427423018759   -2.39724727017437    0.33196908783444
H          -1.40353286342062   -1.79148518316441    1.26225518474141
H          -1.13128985668952   -2.45667979348760   -0.34192972849959
H          -3.33315407902332   -1.13848338695936    0.07485343704039
H          -2.78849057519297   -2.56441813903972   -1.71633323201090
H          -3.21811385530176    1.30306349149327   -0.01728265875734
H          -1.57858483821369    0.44359759967642    2.07609371806605
H          -0.97146415875823    2.39548503949869    0.46249503023366
H          -1.21039460657995    1.78281914379184   -1.18253716152953
H           3.03029268501549    2.50209119205876    0.16649635227815
H           0.37873132250186    3.51293938257306   -0.98415754561222
H           1.90668665192042    4.45810759096265   -0.65211858466494
