# ORCA input file
# SCF done        -45.098599144322          0.000990044383
! B3LYP/G D3BJ Opt RIJCOSX def2-SVP def2/J
* xyz 0 1
   C        1.30078        -1.35436         0.22299
   S        2.57544        -0.21315         0.15388
   C        1.44621         1.10322        -0.02794
   C        0.15000         0.64252        -0.01688
   C        0.07553        -0.76729         0.12719
   C       -1.21832        -1.51967         0.21681
   C       -2.40304        -0.67655        -0.28336
   C       -2.47926        -0.65319        -1.80496
   O       -2.38615         0.32381        -2.48754
   O       -2.70081        -1.85461        -2.36630
   C       -2.33565         0.74566         0.31496
   O       -2.43940         0.69377         1.71942
   C       -1.07627         1.48882        -0.13922
   C        1.99576         2.43049        -0.14686
   C        1.38565         3.51716        -0.61099
   H        1.52427        -2.39725         0.33197
   H       -1.40353        -1.79149         1.26226
   H       -1.13129        -2.45668        -0.34193
   H       -3.33315        -1.13848         0.07485
   H       -2.78849        -2.56442        -1.71633
   H       -3.21811         1.30306        -0.01728
   H       -1.57858         0.44360         2.07609
   H       -0.97146         2.39549         0.46250
   H       -1.21039         1.78282        -1.18254
   H        3.03029         2.50209         0.16650
   H        0.37873         3.51294        -0.98416
   H        1.90669         4.45811        -0.65212
*
