# ORCA input file
# SCF done        -32.445256988569          0.000566474625
! B3LYP/G D3BJ Opt RIJCOSX def2-SVP def2/J
* xyz 0 1
   C       -1.53133        -1.23426         0.15103
   S       -2.70651        -0.00072         0.23338
   C       -1.53150         1.23299         0.15077
   C       -0.25931         0.71896         0.06124
   C       -0.25920        -0.72009         0.06139
   C        0.98259        -1.41603        -0.02600
   C        0.98789        -2.82696        -0.02443
   N        0.98546        -3.97372        -0.02585
   C        2.15628        -0.70281        -0.10929
   C        2.15618         0.70205        -0.10945
   C        0.98235         1.41509        -0.02647
   C        0.98700         2.82601        -0.02807
   N        0.98576         3.97274        -0.02474
   H       -1.82201        -2.26553         0.17143
   H       -1.82229         2.26422         0.17120
   H        3.09652        -1.22955        -0.17539
   H        3.09633         1.22891        -0.17586
*
