17
 SCF done        -32.445256988569          0.000566474625
C          -1.53133003218735   -1.23426352380832    0.15103135830788
S          -2.70651293284305   -0.00071558988225    0.23337726076466
C          -1.53150499095289    1.23298770460461    0.15076902351917
C          -0.25930723374245    0.71895966600223    0.06124269486033
C          -0.25920127850063   -0.72008684480620    0.06138968707613
C           0.98259324290082   -1.41602942382810   -0.02600024310930
C           0.98788552548692   -2.82695700757447   -0.02443162506830
N           0.98546278060812   -3.97371510896051   -0.02585027068399
C           2.15628162783432   -0.70281104471339   -0.10928997929583
C           2.15617895680513    0.70204820287747   -0.10944664771353
C           0.98235074438716    1.41508873986490   -0.02646978835009
C           0.98700398157503    2.82601229198910   -0.02806509547879
N           0.98576337590864    3.97274337727794   -0.02473912626064
H          -1.82200908445213   -2.26553011037812    0.17142919300495
H          -1.82228755680252    2.26421923331812    0.17120305842893
H           3.09651711874966   -1.22954942548763   -0.17539144565130
H           3.09632575522524    1.22890886350461   -0.17585805435027
