19
 SCF done        -34.039224860777          0.000391633605
C           1.17508179869303   -1.42070153786312   -0.08929680023226
S           2.49740963492204   -0.32448373841473   -0.21987898525112
C          -0.01543819364076   -0.76075526388210   -0.01692166379192
C          -1.39533699301687   -1.18745636006656    0.09116587718951
C          -2.27102569466253   -0.18906628072342    0.13553837129764
S          -1.45064752573103    1.43320187371229    0.03996087878607
N          -1.66220071421875    2.16151147632162   -1.28134078720071
O          -1.64337491645608    2.12485408714120    1.29774197577198
C           0.14742860458982    0.64821956955293   -0.06731190231369
C           1.43456306824299    1.07142241631485   -0.17750113181663
C           1.90826602605675    2.42590120211239   -0.25046489983428
C           3.18752706871584    2.77504408153405   -0.34016060693335
H           1.36308756419933   -2.47589768900836   -0.07281278655093
H          -1.64805999304479   -2.23639378883399    0.12808766383450
H          -3.33824029324438   -0.25578324635559    0.21370354308131
H          -2.36354574484478    2.88038098455237   -1.26778049092262
H           1.11833949578555    3.16486723219542   -0.22604746898358
H           3.97173339388037    2.03514638514345   -0.36517955065443
H           3.48841341377422    3.80597859656733   -0.39194123547544
