23
 SCF done        -44.004729338044          0.000911946204
C          -0.82510588044653   -1.28805118545735   -1.44900167069604
S          -2.06863478314320   -2.39484501466164   -1.01274898195779
C          -1.44652363972479   -2.58784282163626    0.58962636678236
C          -0.31251512321610   -1.82360086533804    0.74269493301325
C           0.04292875915565   -1.07255510104331   -0.42124569492966
O           1.13448928297312   -0.28409860741807   -0.37385584599225
C           1.43817234599173    0.47837312591964   -1.52858495452518
C           2.67574369076419    1.30513833249101   -1.22404408131888
O           0.42893375883988   -1.75221893783775    1.89231567263257
N           0.49418462420384   -0.46628361925050    2.50709070505780
O           1.24612137872616   -0.43449241599273    3.41249663609620
O          -0.20558661319576    0.36906473608204    2.05276597010540
C          -2.10616155198001   -3.46949766295969    1.51801604414187
C          -1.61169437141815   -3.85452521420187    2.69108144055679
H          -0.81820289660355   -0.87488541885206   -2.43609293418878
H           0.58695295013918    1.12818461372027   -1.77162693214392
H           1.61890599536559   -0.19622330919357   -2.37670634009711
H           2.48143436866918    1.96706313829552   -0.38457144150483
H           2.94526466907869    1.89909095452669   -2.09237807725369
H           3.50492423995132    0.65157788206997   -0.96627221088977
H          -3.07225038554403   -3.82600163817923    1.18566357872078
H          -0.64456668448942   -3.53495247114815    3.03651751532160
H          -2.16804413409661   -4.50864849993569    3.33910030306913
