# ORCA input file
# SCF done        -33.349989463845          0.000283568704
! B3LYP/G D3BJ Opt RIJCOSX def2-SVP def2/J
* xyz 0 1
   C        3.26757         1.26929         0.69501
   C        2.68780         0.07380         0.61778
   C        3.10196        -1.08082         1.36319
   O        4.15376        -1.03226         2.21806
   C        4.30909        -2.25860         2.77709
   C        3.34335        -3.10992         2.27569
   C        2.56645        -2.35493         1.36590
   O        1.50920        -2.79601         0.64338
   O        3.10965        -4.42717         2.54514
   C        5.35585        -2.50732         3.72872
   C        6.24183        -1.59738         4.12852
   H        2.91821         2.10400         0.11426
   H        4.10891         1.43958         1.34423
   H        1.84240        -0.10743        -0.03018
   H        1.37533        -3.72761         0.85963
   H        3.75297        -4.74027         3.18914
   H        5.39087        -3.51617         4.12210
   H        6.21489        -0.59381         3.74280
   H        7.00879        -1.83207         4.84436
*
