19
 SCF done        -33.349989463845          0.000283568704
C           3.26756818744844    1.26928773636300    0.69500550759596
C           2.68780048533445    0.07379911431148    0.61778124400697
C           3.10195784141039   -1.08082292361112    1.36319066953676
O           4.15376351276042   -1.03226403485372    2.21806459494089
C           4.30908543497539   -2.25860011734870    2.77709239987168
C           3.34334881478986   -3.10991558454158    2.27568618510588
C           2.56644730196052   -2.35492917581777    1.36589900233616
O           1.50919916980401   -2.79601015203440    0.64338426887925
O           3.10964950850030   -4.42716768142143    2.54513881480489
C           5.35584568184948   -2.50731997865057    3.72871674629832
C           6.24183369291530   -1.59737581471216    4.12851655026029
H           2.91821409325005    2.10399643419000    0.11426077439143
H           4.10890906198132    1.43958063022724    1.34423304737051
H           1.84240442618763   -0.10742853265771   -0.03018110724272
H           1.37533381655477   -3.72760849037894    0.85963216877177
H           3.75296679670036   -4.74026936071281    3.18914413654555
H           5.39086535750272   -3.51617287417101    4.12210140661365
H           6.21489103018238   -0.59381042042470    3.74279569277272
H           7.00878578589224   -1.83206877375508    4.84435789714005
