# ORCA input file
# SCF done        -45.440927625736          0.000450084376
! B3LYP/G D3BJ Opt RIJCOSX def2-SVP def2/J
* xyz 0 1
   C       -1.56364        -1.23385         0.22572
   S       -2.76492        -0.03461         0.15186
   C       -1.61389         1.22060        -0.00324
   C       -0.32799         0.73973         0.00024
   C       -0.29372        -0.69627         0.13488
   C        0.93812        -1.37657         0.15938
   C        2.10516        -0.65251         0.04888
   C        3.43079        -1.25843         0.05635
   O        4.47324        -0.66828        -0.08761
   C        3.49156        -2.80076         0.27560
   F        2.91764        -3.17335         1.43458
   F        2.86307        -3.48215        -0.70040
   F        4.74806        -3.23650         0.30608
   C        2.06444         0.77261        -0.08758
   C        0.89388         1.45372        -0.10936
   H       -1.83314        -2.26552         0.33121
   H       -1.93988         2.23756        -0.08870
   H        0.92446        -2.44971         0.25911
   H        3.01149         1.28260        -0.16989
   H        0.86968         2.52776        -0.20890
*
