20
 SCF done        -45.440927625736          0.000450084376
C          -1.56363567547853   -1.23384882955454    0.22571594067882
S          -2.76492458307579   -0.03460908638006    0.15186122695523
C          -1.61389072186426    1.22059561962028   -0.00324095036657
C          -0.32798644623472    0.73972989451536    0.00023920201254
C          -0.29371759907699   -0.69627306054588    0.13488348633890
C           0.93812191152502   -1.37656744048454    0.15937917628880
C           2.10516034496702   -0.65251180144111    0.04888495392909
C           3.43078549496174   -1.25843457222561    0.05634682389009
O           4.47323595699192   -0.66828096690733   -0.08760929318396
C           3.49156171467147   -2.80075595938715    0.27560392546893
F           2.91763617247044   -3.17335212685136    1.43457881795747
F           2.86307202208239   -3.48215320889431   -0.70040164477086
F           4.74805593313472   -3.23649616541756    0.30608106447252
C           2.06444154067350    0.77261313333938   -0.08758390758936
C           0.89388132827824    1.45372431049723   -0.10935743999431
H          -1.83313754607410   -2.26551730456647    0.33120715173072
H          -1.93987902292655    2.23756433218412   -0.08870370992367
H           0.92445634253340   -2.44970956184281    0.25910738511537
H           3.01148951334871    1.28260099619669   -0.16988948589987
H           0.86968331909345    2.52776179814519   -0.20890272311009
