18
 SCF done        -31.914451402658          0.000755858749
C           0.00042414797050   -1.49087976420656    0.00050698449242
C          -1.15968749846440   -0.73810002941445   -0.00105097512935
N          -2.48346829193078   -1.10105204554417   -0.00219558841411
C          -3.20525504171186    0.06007545687416   -0.00408960337137
N          -2.47725543757411    1.12552525122207   -0.00392036426042
C          -1.17182815399899    0.68885625923933   -0.00227840730021
C           0.00013584511476    1.42770576477323   -0.00188617550303
C           1.17224259384685    0.68908937171118   -0.00034002816413
C           1.16038908422965   -0.73786931256182    0.00087912550822
N           2.48423463765550   -1.10057932754892    0.00187332139535
C           3.20579970293751    0.06069413530210    0.00117170297976
N           2.47759632183515    1.12600779288047    0.00014177898324
H           0.00052641179735   -2.57035792632373    0.00146073390190
H          -2.84636862574644   -2.03875455076506   -0.00205355673848
H          -4.27878712490642    0.06146101730130   -0.00543586823567
H           0.00003540090102    2.50329802080607   -0.00261573882861
H           2.84730450371806   -2.03821019937473    0.00272753477804
H           4.27933152432665    0.06229008562952    0.00157512390643
