11
 SCF done        -20.313422679665          0.000363876199
S           0.95591469254733   -0.00978625433302    0.04160885139281
C           2.71189593122373    0.08936195281610    0.04978472740022
C           3.44228953475223    1.23520114864575    0.05538152723277
S           5.13539411574859    0.92550582758048    0.06257476940427
C           4.85886094369592   -0.77334072845303    0.05802153348106
C           3.53436175850978   -1.07678803463937    0.05130563004357
S           2.85155347040336   -2.69761406074644    0.04484958498237
H           0.75993351911108    1.30758398980811    0.04444529753809
H           3.08640099985939    2.24585321620629    0.05571121191213
H           5.69145057712381   -1.44778359234699    0.06056711015281
H           4.02669445702479   -3.32441346453790    0.04878975645989
