# ORCA input file
# SCF done        -38.948777564275          0.000824037863
! B3LYP/G D3BJ Opt RIJCOSX def2-SVP def2/J
* xyz 0 1
   C        1.61078        -1.33199         0.06973
   S        2.81171        -0.11910         0.15625
   C        1.60977         1.14647         0.13781
   C        0.33801         0.61698         0.08522
   C        0.36360        -0.79663         0.04199
   S       -1.10248        -1.81329        -0.02374
   O       -1.34707        -2.33927         1.29191
   O       -0.96396        -2.75298        -1.10248
   C       -2.38830        -0.58884        -0.40690
   C       -2.14392         0.57326         0.53306
   C       -0.93532         1.40460         0.10349
   C        2.08563         2.50772         0.19099
   C        1.42206         3.61049        -0.14628
   H        1.87159        -2.36993         0.03935
   H       -3.34448        -1.07404        -0.23156
   H       -2.28539        -0.32632        -1.45599
   H       -1.97740         0.16455         1.53274
   H       -3.02300         1.22109         0.57259
   H       -0.81656         2.24890         0.78716
   H       -1.12157         1.81224        -0.89622
   H        3.11259         2.59538         0.52280
   H        0.41930         3.60203        -0.53231
   H        1.89051         4.57543        -0.06240
*
