23
 SCF done        -38.948777564275          0.000824037863
C           1.61077817895065   -1.33199089236812    0.06972568376602
S           2.81171222085141   -0.11909761802754    0.15625001521101
C           1.60977137935205    1.14646740245574    0.13780907593160
C           0.33801465628228    0.61697746714478    0.08522266893091
C           0.36360163668880   -0.79662814843859    0.04198691779284
S          -1.10247677254991   -1.81328808159645   -0.02374374869074
O          -1.34707335467286   -2.33926741888461    1.29191168794784
O          -0.96396223090328   -2.75298071884719   -1.10247889107257
C          -2.38829758624036   -0.58884224999754   -0.40690498644276
C          -2.14391610369496    0.57325889629315    0.53305522989489
C          -0.93532300365065    1.40459597783764    0.10348789771188
C           2.08562797420718    2.50771718798937    0.19099399835258
C           1.42206011532624    3.61048682354456   -0.14627674434388
H           1.87159118132572   -2.36993052149176    0.03935492547596
H          -3.34448196559181   -1.07403718881708   -0.23156355959535
H          -2.28539190230372   -0.32632255787902   -1.45598755187368
H          -1.97739952716273    0.16455026852366    1.53273796701481
H          -3.02299613660673    1.22109138838791    0.57259216984530
H          -0.81656171478972    2.24890178152409    0.78715945002324
H          -1.12156629275587    1.81224367738812   -0.89622283078902
H           3.11259419318104    2.59538062295274    0.52279556439877
H           0.41930099926993    3.60202869346717   -0.53231169580837
H           1.89051405548635    4.57542520883930   -0.06240324368155
