22
 SCF done        -34.886475209026          0.000786224460
C          -1.65268480656257   -1.30427233463561    0.59558438324122
S          -2.86772309362950   -0.10545369649336    0.75213989095559
C          -1.81898195051675    1.11443866382539    0.09416140414746
C          -0.58784888279109    0.58446537142298   -0.21751258029679
C          -0.49819032209598   -0.81517200109537    0.05651330806815
O           0.53394949733707   -1.67309298762272   -0.16082480054617
C           1.84372702241859   -1.15681718360224   -0.31258052047538
C           2.19580437924166   -0.11872395896601    0.75614795497020
C           2.06885422025317    1.31345819665276    0.25013262294747
S           0.69973770691671    1.55530053833833   -0.94202111516294
C          -2.34592875359067    2.45020719139826   -0.03270534457358
C          -1.93501863728275    3.38723568319470   -0.88124356188198
H          -1.84915607204618   -2.31958179786630    0.87134784932672
H           1.97333850360718   -0.73525950815950   -1.31754502171868
H           2.47958889821658   -2.04083050583363   -0.22287610791796
H           3.21795691437733   -0.27307063254565    1.10578795768205
H           1.52847406961900   -0.27253502811518    1.60819263517675
H           2.95382090833722    1.61165286573691   -0.31219022671181
H           1.92103903972499    2.01192944325619    1.07415386113205
H          -3.18119950586858    2.65315216777808    0.62518350409947
H          -1.14277526578735    3.21814869717116   -1.58806585920288
H          -2.39397386987810    4.36097081616088   -0.89003023325913
