13
 SCF done        -25.375197860042          0.000490431428
C           1.23045796653264   -1.31027645309714    0.03632526943337
S           2.51800086989277   -0.16443441369461    0.00727327072273
C           1.41009730740082    1.16660685326804   -0.01902569803893
C           0.13449379876473    0.72971833687386   -0.01436991593491
C           0.01813319956222   -0.69250922651053    0.02287475925549
C          -1.35572535531234   -1.13508730039492    0.00137988249888
C          -2.23170461856100   -0.13322631762657   -0.03556096342342
S          -1.49268895179277    1.54108596112005    0.02523846775472
O          -1.72524552285650    2.17126491443424   -1.27556023375694
H           1.45439017408430   -2.35761185784840    0.06845305007232
H           1.78652028994846    2.16872813811927   -0.04897959765236
H          -1.61390184723279   -2.18208311975659   -0.01097845184168
H          -3.30209731043054   -0.21323551488668   -0.07502983908926
