# ORCA input file
# SCF done        -25.375197860042          0.000490431428
! B3LYP/G D3BJ Opt RIJCOSX def2-SVP def2/J
* xyz 0 1
   C        1.23046        -1.31028         0.03633
   S        2.51800        -0.16443         0.00727
   C        1.41010         1.16661        -0.01903
   C        0.13449         0.72972        -0.01437
   C        0.01813        -0.69251         0.02287
   C       -1.35573        -1.13509         0.00138
   C       -2.23170        -0.13323        -0.03556
   S       -1.49269         1.54109         0.02524
   O       -1.72525         2.17126        -1.27556
   H        1.45439        -2.35761         0.06845
   H        1.78652         2.16873        -0.04898
   H       -1.61390        -2.18208        -0.01098
   H       -3.30210        -0.21324        -0.07503
*
