# ORCA input file
# SCF done        -35.699398092085          0.000287191522
! B3LYP/G D3BJ Opt RIJCOSX def2-SVP def2/J
* xyz 0 1
   C        0.34018         1.36100        -0.09423
   S       -0.85774         0.12677        -0.04593
   C        0.36971        -1.10092        -0.09401
   O        0.05004        -2.39997        -0.07007
   C       -1.31744        -2.72924         0.02008
   C        1.64236        -0.57060        -0.13816
   C        2.88288        -1.35913        -0.16161
   O        3.97439        -0.86054         0.02013
   C        2.74099        -2.83667        -0.42823
   C        1.60918         0.87385        -0.13186
   C        2.78874         1.72034        -0.20485
   C        2.83130         2.98927         0.18164
   H        0.01855         2.38203        -0.11554
   H       -1.36625        -3.81627         0.02380
   H       -1.87343        -2.33485        -0.83635
   H       -1.75777        -2.33348         0.94078
   H        2.14657        -3.01212        -1.32094
   H        2.23628        -3.31231         0.40947
   H        3.73077        -3.27057        -0.54700
   H        3.67852         1.23815        -0.58048
   H        1.98056         3.49451         0.60823
   H        3.73482         3.56732         0.09658
*
