22
 SCF done        -35.699398092085          0.000287191522
C           0.34018211238010    1.36099558264915   -0.09423133462544
S          -0.85774333102440    0.12676883320157   -0.04592801481339
C           0.36971072820902   -1.10092327302131   -0.09401457075567
O           0.05003836703704   -2.39997454447007   -0.07006647474447
C          -1.31743588216484   -2.72923819046789    0.02008023547781
C           1.64235541826211   -0.57059983392779   -0.13816354078256
C           2.88287891492649   -1.35913092395094   -0.16160980205146
O           3.97439304290910   -0.86053632002946    0.02012509479735
C           2.74098538252840   -2.83666962338760   -0.42822511324222
C           1.60918105696123    0.87385369731331   -0.13186266654834
C           2.78873519853333    1.72033949111913   -0.20484720283398
C           2.83130112887403    2.98926793642057    0.18164364782294
H           0.01855017056616    2.38203464131724   -0.11554481470750
H          -1.36625133847121   -3.81627401396535    0.02379853753996
H          -1.87343175732335   -2.33484877161690   -0.83634714752877
H          -1.75776691894673   -2.33348478577048    0.94077804072972
H           2.14657048620564   -3.01212018865367   -1.32093515952543
H           2.23627566358128   -3.31231484574336    0.40947080478887
H           3.73076907542444   -3.27056825458612   -0.54700076254053
H           3.67851864206756    1.23815209585598   -0.58048471326914
H           1.98056036802388    3.49451256643131    0.60823468181284
H           3.73482347144073    3.56731872528269    0.09658027499935
