# ORCA input file
# SCF done        -21.430001049875          0.000563164303
! B3LYP/G D3BJ Opt RIJCOSX def2-SVP def2/J
* xyz 0 1
   C        0.62767         1.27228        -0.06851
   C       -0.73962         1.04187        -0.11962
   N       -1.27847        -0.15752        -0.04454
   C       -0.48286        -1.21982         0.09199
   C        0.90732        -1.08733         0.15297
   C        1.46426         0.17514         0.07027
   C       -1.18295        -2.49835         0.16387
   C       -0.63435        -3.68987         0.36313
   H        1.02348         2.27330        -0.13650
   H       -1.44044         1.86043        -0.22645
   H        1.53800        -1.95546         0.25922
   H        2.53687         0.30383         0.11278
   H       -2.25352        -2.40313         0.04089
   H        0.42457        -3.83134         0.50058
   H       -1.23593        -4.58207         0.40150
*
