15
 SCF done        -21.430001049875          0.000563164303
C           0.62767063920141    1.27227607318220   -0.06851190377194
C          -0.73962135809608    1.04187415373827   -0.11962175420237
N          -1.27846945876038   -0.15751975022594   -0.04453594454685
C          -0.48286100412687   -1.21982252519905    0.09199230933329
C           0.90731571933450   -1.08733239102786    0.15297003990740
C           1.46426436879162    0.17514362003859    0.07027174749620
C          -1.18295271948759   -2.49834599421177    0.16387305432252
C          -0.63435038330280   -3.68987029783761    0.36313261955165
H           1.02347569287241    2.27330333638815   -0.13649609526311
H          -1.44043800712373    1.86042826859361   -0.22644875057700
H           1.53799675271490   -1.95546353122050    0.25922161205966
H           2.53686787330617    0.30382749825846    0.11278395725402
H          -2.25351549535385   -2.40312815789473    0.04088618970304
H           0.42457164935102   -3.83134226259615    0.50058371176401
H          -1.23593426932071   -4.58206803998563    0.40149920696951
