14
 SCF done        -18.414102706625          0.000752526703
C          -1.53318757021224    0.58353328506913   -0.28116513675808
C          -1.80657704141396   -0.76054415882353   -0.14864743094103
C          -0.55050197287550   -1.60199350648901   -0.07632274051994
C           0.48247289262955   -0.53581879268275   -0.18523245713688
C          -0.15020809703891    0.72793132710716   -0.30664652355552
C           1.20746075055426    1.41308976955479   -0.38106277213534
C           1.74447581460381   -0.01332851423412   -0.24293638202595
H          -2.27554222230116    1.35936809308617   -0.35345418382080
H          -2.78744862698550   -1.19658082191165   -0.10013039121468
H          -0.50443897450767   -2.32615171736282   -0.89358672159435
H          -0.49337387498944   -2.16106770027789    0.86081318201289
H           1.43444502115648    2.08549563899639    0.44573396656507
H           1.42499507852858    1.90841413050859   -1.32699322178217
H           2.74177882285170   -0.40625703254045   -0.20707918709321
