16
 SCF done        -32.459068136514          0.000163476919
C          -3.11954869929036    0.04400530660771   -0.00577812948235
N          -2.39402058053400   -1.11874569415102   -0.00944335259563
C          -1.08609471257254   -0.74432546338027   -0.00723367553692
N          -0.00020561220744   -1.50634335496630   -0.00914020631402
C           1.08522767378376   -0.74368226381256   -0.00575064457113
N           2.39337715953956   -1.11732602821657   -0.00618541514824
C           3.11821000696839    0.04585514461624   -0.00158315791076
N           2.39938658881454    1.11929007304472    0.00160344651468
C           1.09853579343739    0.69243058521769   -0.00076220761012
N          -0.00108217625900    1.42798827269627    0.00104290908091
C          -1.10026049314750    0.69177879792518   -0.00224555589668
N          -2.40136631079461    1.11786698284869   -0.00173080265332
H          -4.19247632116071    0.04211017461818   -0.00646162097327
H          -2.74308772899602   -2.06259728687617   -0.01274569493492
H           2.74301690716199   -2.06096718556710   -0.00899080953736
H           4.19113850525655    0.04459193939530   -0.00083508243088
