# ORCA input file
# SCF done        -32.459068136514          0.000163476919
! B3LYP/G D3BJ Opt RIJCOSX def2-SVP def2/J
* xyz 0 1
   C       -3.11955         0.04401        -0.00578
   N       -2.39402        -1.11875        -0.00944
   C       -1.08609        -0.74433        -0.00723
   N       -0.00021        -1.50634        -0.00914
   C        1.08523        -0.74368        -0.00575
   N        2.39338        -1.11733        -0.00619
   C        3.11821         0.04586        -0.00158
   N        2.39939         1.11929         0.00160
   C        1.09854         0.69243        -0.00076
   N       -0.00108         1.42799         0.00104
   C       -1.10026         0.69178        -0.00225
   N       -2.40137         1.11787        -0.00173
   H       -4.19248         0.04211        -0.00646
   H       -2.74309        -2.06260        -0.01275
   H        2.74302        -2.06097        -0.00899
   H        4.19114         0.04459        -0.00084
*
