16
 SCF done        -38.050567886930          0.000335442877
C           0.03407099128810    1.44686824996413   -0.01881282345240
C           1.19519742244377    0.69580278742298   -0.05062216097446
F           2.37832129029572    1.31883519419685   -0.10716807436772
C           1.14390753209507   -0.69052304014065   -0.02560948503321
F           2.29164029330747   -1.38357658202613   -0.05802050829051
C          -0.06951552737427   -1.38724990352624    0.04299014854570
C          -1.23231553324757   -0.60991965503767    0.06573766454002
C          -1.17503195989682    0.77820909885588    0.03458400643277
F          -2.31168946010336    1.48515165030001    0.05623945346862
F          -2.43908810320220   -1.19124103886225    0.09676291705218
C          -0.04212174761212   -2.84648502437203    0.06927377613513
C          -1.02018616273902   -3.64974214246498    0.47109725100827
H           0.07035434611204    2.52314954819644   -0.03873248943026
H           0.89978059729214   -3.27174036351306   -0.25058467330565
H          -1.96886525998681   -3.29402359686447    0.83072491470816
H          -0.88672871867220   -4.71765518212881    0.45809008296333
