15
 SCF done        -26.912782461352          0.000530934485
C           0.97950578366051    1.58793592680911    0.09682947278481
S           2.39720167515966    0.61198579059292    0.22171436447668
C          -0.12632069313599    0.80809527881830    0.00437409567604
S          -1.84060843615899    1.05068381366906   -0.14194342163241
C          -2.00619463336156   -0.70856268768527   -0.15196462549255
N          -0.94279788817644   -1.39970608010643   -0.05938700784153
C           0.15728667252561   -0.60058350112003    0.03218333570112
C           1.50108923386525   -0.88046502318746    0.14864245493514
C           2.11218897800093   -2.17544323277080    0.20626390748413
C           3.41848657805504   -2.39549234947570    0.33295454486676
H           1.06350672571550    2.65510122431927    0.10110946569501
H          -2.98621616122414   -1.13676678834592   -0.23250266848229
H           1.40750809272058   -2.99405103009576    0.13809686626526
H           4.12104998696263   -1.58079024549089    0.40249604164550
H           3.82137408539139   -3.39154109593032    0.37122317391836
