# ORCA input file
# SCF done        -26.912782461352          0.000530934485
! B3LYP/G D3BJ Opt RIJCOSX def2-SVP def2/J
* xyz 0 1
   C        0.97951         1.58794         0.09683
   S        2.39720         0.61199         0.22171
   C       -0.12632         0.80810         0.00437
   S       -1.84061         1.05068        -0.14194
   C       -2.00619        -0.70856        -0.15196
   N       -0.94280        -1.39971        -0.05939
   C        0.15729        -0.60058         0.03218
   C        1.50109        -0.88047         0.14864
   C        2.11219        -2.17544         0.20626
   C        3.41849        -2.39549         0.33295
   H        1.06351         2.65510         0.10111
   H       -2.98622        -1.13677        -0.23250
   H        1.40751        -2.99405         0.13810
   H        4.12105        -1.58079         0.40250
   H        3.82137        -3.39154         0.37122
*
