14
 SCF done        -18.786304448619          0.000564150484
C           0.23698642824020    0.98831068286284   -0.01633974345828
O           1.02396704523197   -0.19575050476074   -0.15126894074957
C          -0.13010295429744   -1.03592143766250   -0.11519759806527
C          -1.06418642946387    0.17097503800332    0.09460868515952
C          -2.08385997416819    0.40782020203507   -0.96168784631306
C          -3.36329203967057    0.62979512459342   -0.72251371876103
H           0.30631673545293    1.62474247684612   -0.90375095386407
H           0.51401055607472    1.56469661517636    0.87026951386536
H          -0.08798672715198   -1.75362896910867    0.70810367820380
H          -0.27288688868161   -1.56974186688630   -1.05987596483094
H          -1.51718989736650    0.20485409460877    1.08556840366470
H          -1.70939605124301    0.38726340890165   -1.97707904529045
H          -3.75669740279665    0.65103291720959    0.28038676662241
H          -4.07124240016008    0.79702221818103   -1.51576323618306
