# ORCA input file
# SCF done        -30.378823462364          0.000321781652
! B3LYP/G D3BJ Opt RIJCOSX def2-SVP def2/J
* xyz 0 1
   C        1.03225         0.55645        -0.03949
   C       -0.24720         1.01334         0.06980
   O       -1.12021         0.00821         0.09217
   C       -0.40682        -1.13268        -0.00370
   N       -1.13014        -2.34337         0.00008
   O       -0.49305        -3.37841        -0.08646
   O       -2.33803        -2.27364         0.08875
   C        0.95474        -0.86207        -0.09003
   C        2.03059        -1.81929        -0.20469
   C        3.31531        -1.48536        -0.28201
   H        1.91981         1.15187        -0.07925
   H       -0.64299         2.00813         0.13732
   H        1.72619        -2.85549        -0.22456
   H        3.65035        -0.46206        -0.26369
   H        4.07985        -2.23749        -0.36545
*
