15
 SCF done        -30.378823462364          0.000321781652
C           1.03224710416395    0.55644513899220   -0.03949379930038
C          -0.24720491068032    1.01334322375727    0.06979747437897
O          -1.12020788762857    0.00820897150762    0.09217164433587
C          -0.40681583102091   -1.13268132323737   -0.00370238388037
N          -1.13013770069498   -2.34337149283194    0.00007517868233
O          -0.49304621140760   -3.37841470898169   -0.08645608052677
O          -2.33802532163135   -2.27364414851591    0.08874755292603
C           0.95474044014090   -0.86207292797875   -0.09002573993441
C           2.03059474843646   -1.81928981542420   -0.20468884190613
C           3.31531134413933   -1.48535620729283   -0.28201264054458
H           1.91981445128363    1.15187244077662   -0.07925484258364
H          -0.64298927247020    2.00813467869937    0.13731786195591
H           1.72619268024474   -2.85548865924845   -0.22455836912404
H           3.65035295336020   -0.46206490289405   -0.26368886348521
H           4.07985341376472   -2.23749026732791   -0.36544815099360
