# ORCA input file
# SCF done        -45.768132341366          0.000646971539
! B3LYP/G D3BJ Opt RIJCOSX def2-SVP def2/J
* xyz 0 1
   C        0.15910         1.01450        -0.80900
   C       -0.73393         0.04968        -1.04877
   C       -0.77519        -1.00612        -0.08449
   S        0.40899        -0.71763         1.18704
   C        0.97532         0.84206         0.42244
   C       -1.58978        -2.10025        -0.09235
   C       -1.64832        -3.14875         0.86145
   C       -2.56900        -4.10531         0.58399
   C       -3.30069        -3.88428        -0.60920
   S       -2.76768        -2.38849        -1.37378
   C       -4.28214        -4.67006        -1.14819
   S       -4.81962        -6.16208        -0.37760
   C       -6.03468        -6.50160        -1.69529
   C       -5.92506        -5.37910        -2.68093
   C       -4.99849        -4.44707        -2.35074
   C       -6.74345        -5.33329        -3.85949
   C       -7.66091        -6.24001        -4.20013
   H        0.32006         1.87870        -1.42946
   H       -1.40028         0.02272        -1.89446
   H        2.04328         0.75783         0.20809
   H        0.83087         1.65402         1.13817
   H       -0.99732        -3.14210         1.71828
   H       -2.76178        -4.97555         1.18702
   H       -7.02670        -6.55833        -1.24280
   H       -5.79615        -7.46818        -2.14291
   H       -4.78693        -3.57284        -2.94441
   H       -6.57147        -4.47820        -4.50021
   H       -7.86686        -7.10681        -3.59576
   H       -8.23654        -6.14009        -5.10337
*
