29
 SCF done        -45.768132341366          0.000646971539
C           0.15910455112869    1.01449719132752   -0.80900139645239
C          -0.73393238183087    0.04968156840619   -1.04877448204733
C          -0.77518802666148   -1.00611673464833   -0.08449392745199
S           0.40899108053228   -0.71763252862403    1.18703656160508
C           0.97532406517873    0.84205780878378    0.42243875566421
C          -1.58978108784151   -2.10025003612144   -0.09234674227180
C          -1.64831765498237   -3.14874564799933    0.86145113595210
C          -2.56900417518588   -4.10530776629886    0.58398907190280
C          -3.30068812383482   -3.88428047033020   -0.60920428446980
S          -2.76768178294632   -2.38849243770554   -1.37378330281463
C          -4.28214150148875   -4.67006120462773   -1.14818540326923
S          -4.81961883295610   -6.16207780385116   -0.37759934008128
C          -6.03467875855504   -6.50160135001255   -1.69529147418548
C          -5.92506416008028   -5.37909522294790   -2.68092870470166
C          -4.99848854618223   -4.44706757656785   -2.35073925541015
C          -6.74345322732246   -5.33329421476184   -3.85949265464390
C          -7.66091265501814   -6.24000965612073   -4.20013152365143
H           0.32005817304567    1.87870356521054   -1.42945853499913
H          -1.40028283469026    0.02272000914096   -1.89446043958251
H           2.04327956028461    0.75783228875947    0.20809149227892
H           0.83087084146990    1.65402050363673    1.13817080545973
H          -0.99731998498795   -3.14210070465109    1.71828321615030
H          -2.76178069235925   -4.97554577332876    1.18701615321734
H          -7.02670462955402   -6.55833490740493   -1.24279614090974
H          -5.79615344525043   -7.46817599017982   -2.14290570290442
H          -4.78693491782753   -3.57283816062974   -2.94440799724824
H          -6.57147109113837   -4.47820320995242   -4.50021138079593
H          -7.86686393995855   -7.10681150493716   -3.59575700173125
H          -8.23653582098719   -6.14009003356386   -5.10336750260815
