19
 SCF done        -37.285760665734          0.000404513525
C          -1.09389889639808   -1.43274021303416    0.16188173746149
S          -2.36849288393304   -0.27538271639265    0.13089213690805
C          -1.30313402468019    1.09083776272843    0.02086236210906
C           0.01368615671107    0.64452612020536    0.00825087863021
C           0.10767170067698   -0.79318861163369    0.08971954801306
N           1.42650873707483   -1.13593760837754    0.06996509277226
C           2.15636658139342    0.02659465440445   -0.02042903674713
N           3.55775436243427   -0.03737757366783   -0.05832889694080
O           4.05522132116917   -1.15348027329681   -0.00528519088216
O           4.17997440012336    1.00407445563236   -0.14231776488654
C           1.33859753376238    1.13393934847323   -0.06125948876011
C          -1.86679477005963    2.40594121156499   -0.03719134316155
C          -1.17616668486079    3.54418409965567   -0.10570766918814
H          -1.31619034683016   -2.47714714177467    0.22990299820396
H           1.84478556295538   -2.05075970236479    0.11374638267101
H           1.68120403248839    2.14526820082624   -0.13273202634843
H          -2.94867961464737    2.43345078410030   -0.01936495137885
H          -0.10201813959695    3.56282188360917   -0.12217574822744
H          -1.67706502778304    4.49489531934196   -0.14435902024794
