16
 SCF done        -28.533018864531          0.000305777568
C           1.74879377017635   -0.49135680554065   -0.82800222813395
S           1.18111039007177    0.47328992099568   -2.02518168065935
C           2.46905073161288   -0.00978163605161    0.27927940497047
C           2.94293326444675   -0.80793541008157    1.27450077819560
S           3.84569685255410   -0.22280844376217    2.66513245976720
C           3.95595473420903   -1.85858966878132    3.24210777713627
C           3.34240838111162   -2.72130499214005    2.40654641954367
O           2.77783044537497   -2.13947487876791    1.31131763905401
C           3.23285400694000   -4.15400852794612    2.55980321588492
C           2.60976739872201   -4.94153276015335    1.68907041892825
H           1.56440006640977   -1.55960047395117   -0.88329664951503
H           2.65882671656483    1.05001826785497    0.34670822279768
H           4.46399762489362   -2.08168453887758    4.15616227582389
H           3.70191277121417   -4.54824445129317    3.44910293186642
H           2.14392567780530   -4.54180652990473    0.80473493049566
H           2.54834716789283   -6.00450907159924    1.83806408384422
