# ORCA input file
# SCF done        -41.354524011761          0.000934521786
! B3LYP/G D3BJ Opt RIJCOSX def2-SVP def2/J
* xyz 0 1
   C       -1.54717         1.23071         0.08880
   S       -2.70835        -0.01876         0.11922
   C       -1.49708        -1.25827         0.10507
   C       -0.22631        -0.68962         0.07670
   C       -0.25897         0.74393         0.06751
   C        0.94678         1.48667         0.03975
   C        2.15252         0.84811         0.02255
   C        3.48277         1.58307        -0.00914
   C        3.31231         3.10457        -0.02380
   C        4.29503         1.20575         1.23808
   C        4.24992         1.17684        -1.27571
   C        2.16908        -0.57619         0.03425
   C        1.03459        -1.32591         0.05936
   C       -1.83614        -2.64901         0.12514
   C       -3.07416        -3.13936         0.16013
   H       -1.86918         2.25319         0.08793
   H        0.86519         2.56119         0.03333
   H        2.79928         3.44903         0.87112
   H        2.75562         3.42712        -0.90058
   H        4.29114         3.57905        -0.05390
   H        3.74246         1.46575         2.13880
   H        5.24051         1.74426         1.24547
   H        4.51115         0.14135         1.26698
   H        3.66597         1.41810        -2.16173
   H        4.46361         0.11164        -1.28893
   H        5.19524         1.71306        -1.32849
   H        3.12078        -1.08528         0.02335
   H        1.09252        -2.40420         0.06670
   H       -0.98984        -3.32379         0.11336
   H       -3.93544        -2.49181         0.17413
   H       -3.26312        -4.19790         0.17637
*
