31
 SCF done        -41.354524011761          0.000934521786
C          -1.54717023848481    1.23070858410184    0.08880156793782
S          -2.70834658884688   -0.01875878884319    0.11922199367397
C          -1.49707577324024   -1.25827112795989    0.10506588852921
C          -0.22630900923449   -0.68961887934743    0.07670397934235
C          -0.25896748237939    0.74393492055634    0.06750897180574
C           0.94678393143940    1.48667304295303    0.03974996007575
C           2.15251920068537    0.84810855563135    0.02254921191865
C           3.48277402690032    1.58306865088891   -0.00913813311365
C           3.31230848813249    3.10457409494693   -0.02380016234143
C           4.29503263061775    1.20575020542950    1.23807939960155
C           4.24992177148322    1.17683675807271   -1.27571086201024
C           2.16908139615519   -0.57619405019799    0.03424650205405
C           1.03458989693298   -1.32590805509105    0.05936340794073
C          -1.83613675412565   -2.64901371757047    0.12514294342558
C          -3.07416306921759   -3.13935861595375    0.16012701820419
H          -1.86918168013208    2.25319317513899    0.08793382799673
H           0.86518798268865    2.56119379369966    0.03333064588562
H           2.79927668069450    3.44903320197276    0.87111802020649
H           2.75562108949488    3.42712043130700   -0.90058420064897
H           4.29114466000493    3.57904630304936   -0.05389851378982
H           3.74246334585830    1.46575364589810    2.13880159048497
H           5.24050943477197    1.74425571197554    1.24546871733629
H           4.51114990939570    0.14135360115600    1.26697711371852
H           3.66597163391906    1.41810488676436   -2.16172994520680
H           4.46360622558193    0.11163577891836   -1.28893163387011
H           5.19523518912991    1.71305537825948   -1.32848729638063
H           3.12077593260201   -1.08528328908445    0.02335178472480
H           1.09251689798566   -2.40419743708946    0.06669808977539
H          -0.98984473888815   -3.32379305663184    0.11336131483400
H          -3.93544331371247   -2.49180554436144    0.17412943460448
H          -3.26312167621266   -4.19789815858875    0.17636936328437
