13
 SCF done        -34.716398611836          0.000745235778
C           0.21217619173049    1.21557418051591   -0.15445968452741
S          -0.99781822786856    0.02058491965670    0.00736150347128
C           0.17403883348753   -1.21492594536212    0.16534769601713
C           1.44629213248800   -0.72704752551651    0.09372930926893
C           1.46893449760941    0.68555591584942   -0.09002527051003
N           2.65084353322535    1.51115944048942   -0.07147890170390
O           2.59207392523764    2.55253799625712   -0.68003641206138
O           3.57604309554315    1.11858745103412    0.59461362491057
N           2.60055913841149   -1.59458746731878    0.06968692866619
O           2.54562410518016   -2.58521604322123    0.75715615618799
O           3.49251381576589   -1.28448045628823   -0.67950392591982
H          -0.03598252087418    2.25289361372286   -0.26821253038083
H          -0.11020851993638   -2.24253607981867    0.28205150658129
