# ORCA input file
# SCF done        -29.621310714348          0.000965402176
! B3LYP/G D3BJ Opt RIJCOSX def2-SVP def2/J
* xyz 0 1
   C        2.07833         0.69265        -0.12598
   O        0.89986         1.37280        -0.10425
   C       -0.25644         0.65469        -0.05447
   C       -1.48086         1.25119        -0.04106
   F       -1.71983         2.56178        -0.07300
   S       -2.79700         0.12742         0.02443
   C        2.27101        -0.61911        -0.09532
   S        1.00588        -1.84637        -0.01439
   C       -0.38429        -0.76589        -0.01051
   C       -1.67379        -1.18233         0.03321
   H        2.90476         1.38608        -0.17610
   H        3.25832        -1.04099        -0.11902
   H       -2.03006        -2.19096         0.07117
*
