37
 SCF done        -48.788463330232          0.000686018758
C           3.10737530873060    0.60898167232315   -0.24719092781381
C           2.36610284339320   -0.36908928769376   -0.85968018736255
C           1.00573109211717   -0.29899955673327   -0.43977423089154
C           0.79519243327680    0.71652545006336    0.45491374649662
S           2.20647624937371    1.61858066444653    0.81423521593641
C          -0.63965157093278    0.85608503531853    0.77049763050604
C          -1.12759008992912   -0.56423736867433    0.46421661000798
C          -0.29665456261609   -1.02582806081659   -0.76386417626725
C          -0.90687020447489   -0.48112628542359   -2.06872780840449
C          -0.08960476488953   -0.75808067658502   -3.32535605103301
C          -0.11096696181717   -2.55051685838229   -0.78277406835527
C          -1.40385804997408   -3.35755681538759   -0.73826621444411
C          -2.63926329788287   -0.44930949353359    0.56861358437937
C          -2.86661401010672    0.20543703049193    1.93938453568556
S          -1.36610553600429    1.18424669386082    2.40862812411791
C           2.94111902906138   -1.32783050875716   -1.79116148528546
C           4.01578664083469   -1.10179896411023   -2.53577024622622
H           4.16223521827474    0.77413911213911   -0.33818987485003
H          -1.09323182985007    1.60349931783940    0.10651555450241
H          -0.79119213466362   -1.18952011241180    1.30162288365397
H          -1.01806403994551    0.60067415338832   -1.96525596836184
H          -1.90580911980949   -0.90452915227724   -2.19075880634163
H           0.93138806980782   -0.40399823427205   -3.21004032341050
H          -0.53701569985837   -0.24105102582967   -4.17121131582735
H          -0.06560115481569   -1.81898830346522   -3.55930745093907
H           0.50919514515682   -2.83124374310110    0.07272334346701
H           0.43080335554336   -2.82622068732872   -1.68659929455588
H          -1.90836885515491   -3.24049710755359    0.21640383918426
H          -1.17874568219424   -4.41397743989859   -0.86914645676041
H          -2.08268686573082   -3.05712004949027   -1.53193289304151
H          -3.15271272276713   -1.40817305360517    0.52773325912122
H          -3.03078231153750    0.18818113915603   -0.22554317639306
H          -2.99701436535520   -0.53987516689853    2.72275928643893
H          -3.72168577901089    0.87881256048833    1.94612090909236
H           2.43485249095608   -2.27921603287074   -1.86130063634923
H           4.53637522137210   -0.15970934632101   -2.51794386978108
H           4.40513651142247   -1.85059949809425   -3.20340305989481
