17
 SCF done        -34.787092267414          0.000679100949
C          -1.31160528300029    1.04602393623826   -0.14723671782797
O          -2.05020735535694   -0.07527841798168   -0.21670631494225
C           0.00405753685666    0.71947118575214   -0.03378141759510
C           1.37600253713828    1.24189361994408    0.08197253575320
O           1.79440954150855    2.36674765256712    0.11772657551953
N           2.15802992977322    0.09158333199866    0.14602194884851
C           1.46414598325795   -1.11853040087969    0.08595056376989
O           1.97118003950564   -2.20738945206393    0.12810566367148
C           0.06278506969404   -0.70574028862478   -0.03242939066073
C          -1.22940604319992   -1.15757958667697   -0.14776091083559
C          -1.75278900438966   -2.49606043329424   -0.20328907419544
C          -3.04428931525221   -2.78250074946188   -0.34509771739058
H          -1.83127636090349    1.98254608934069   -0.18865327038243
H           3.16416580893413    0.12989579727706    0.23018505902425
H          -1.00011972495724   -3.26712948170762   -0.12324596625919
H          -3.78483713705475   -2.00469365462442   -0.42585386807166
H          -3.39346622255396   -3.79863914780283   -0.38434769842588
