# ORCA input file
# SCF done        -34.787092267414          0.000679100949
! B3LYP/G D3BJ Opt RIJCOSX def2-SVP def2/J
* xyz 0 1
   C       -1.31161         1.04602        -0.14724
   O       -2.05021        -0.07528        -0.21671
   C        0.00406         0.71947        -0.03378
   C        1.37600         1.24189         0.08197
   O        1.79441         2.36675         0.11773
   N        2.15803         0.09158         0.14602
   C        1.46415        -1.11853         0.08595
   O        1.97118        -2.20739         0.12811
   C        0.06279        -0.70574        -0.03243
   C       -1.22941        -1.15758        -0.14776
   C       -1.75279        -2.49606        -0.20329
   C       -3.04429        -2.78250        -0.34510
   H       -1.83128         1.98255        -0.18865
   H        3.16417         0.12990         0.23019
   H       -1.00012        -3.26713        -0.12325
   H       -3.78484        -2.00469        -0.42585
   H       -3.39347        -3.79864        -0.38435
*
