# ORCA input file
# SCF done        -28.470588942373          0.000350644082
! B3LYP/G D3BJ Opt RIJCOSX def2-SVP def2/J
* xyz 0 1
   C        0.20025         0.98113         0.01270
   S       -0.93898        -0.30588         0.04933
   C        0.33048        -1.48668         0.13938
   C        1.57872        -0.87808         0.14288
   C        1.47762         0.53973         0.07002
   C        2.85439        -1.60576         0.21496
   O        2.93773        -2.81630         0.20833
   C        4.09359        -0.74371         0.30193
   C        0.02917        -2.88933         0.21065
   C       -1.20213        -3.39454         0.19337
   H       -0.15200         1.99171        -0.04946
   H        2.32077         1.20528         0.05571
   H        4.03968        -0.09177         1.17084
   H        4.18634        -0.13052        -0.59174
   H        4.96603        -1.38662         0.38596
   H        0.89461        -3.53318         0.27885
   H       -2.07407        -2.76381         0.11971
   H       -1.37503        -4.45431         0.25085
*
