18
 SCF done        -28.470588942373          0.000350644082
C           0.20024566661776    0.98113069828643    0.01269616638939
S          -0.93898026272980   -0.30587818813994    0.04932989430754
C           0.33048131336168   -1.48667699175632    0.13937820670452
C           1.57872239049899   -0.87808224264250    0.14287783276775
C           1.47762076879790    0.53972621978815    0.07001694969577
C           2.85438915672165   -1.60575621851195    0.21495898512815
O           2.93773011168141   -2.81630086563494    0.20832819263143
C           4.09359238202312   -0.74370910916453    0.30192736933480
C           0.02916799448606   -2.88933029512643    0.21064544699001
C          -1.20212594271300   -3.39454235389950    0.19337498880314
H          -0.15199867459606    1.99171435607246   -0.04945897744770
H           2.32077492172599    1.20527961379994    0.05571082016422
H           4.03967804375178   -0.09177419557260    1.17084258108294
H           4.18634277815068   -0.13051587906186   -0.59174070346949
H           4.96602839804357   -1.38661806341023    0.38596190457469
H           0.89460676023929   -3.53317898143548    0.27885382404544
H          -2.07407140606139   -2.76381327535836    0.11971112035136
H          -1.37503439999948   -4.45431422823230    0.25084539794597
