17
 SCF done        -26.009520537248          0.000737208895
N          -0.95779096958005   -1.38166621764631    0.32567934068032
C           0.24001261228832   -0.71507492281819    0.10695551953682
C           1.49402191192085   -1.23529278108593    0.16389008843375
S           2.70695308214240   -0.02645846561742   -0.05851251270653
C           1.50465406939801    1.19960145174307   -0.23844663869822
C           0.24587927427025    0.69860367895217   -0.13439060590113
N          -0.94864844860102    1.38398480384828   -0.30819937830175
C          -2.11202287421327    0.73800476226198    0.26275892332277
C          -2.13072921474978   -0.71834757942285   -0.20550085332377
H          -0.92024281875933   -2.37754502594293    0.16005273687929
H           1.78413720036113   -2.25132620222371    0.33805556830890
H           1.80281174682917    2.21188569448460   -0.42154827293196
H          -0.88898917445401    2.37866510858059   -0.14253959373669
H          -3.00626901809911    1.25573528092564   -0.09150437546621
H          -2.10402495815163    0.75319043566867    1.36359282327200
H          -2.15952983124988   -0.73380531647590   -1.30571123809481
H          -3.01938258935190   -1.22343470523185    0.17960846872725
