37
 SCF done        -49.055755298350          0.000349014832
C           2.47766203398100   -0.92776855419000    0.02398547695935
C           3.44444309119095    0.05831050693002   -0.00970911224737
C           3.11192479576577    1.41029253926908   -0.02422323133017
C           1.79094664370008    1.80577763894674   -0.00408205404854
C           0.80274479337006    0.83099976541697    0.03098540735770
C           1.14084358398246   -0.54526401757398    0.04440169563618
N          -0.01471863462088   -1.29594515078265    0.07826786446223
C          -1.09075012297413   -0.43641901395613    0.08747885069478
C          -0.62798369077147    0.90040674310908    0.05932062176229
C          -1.52710705185910    1.95877788686828    0.06465233290712
C          -2.87753036197924    1.67963273245799    0.09734239939033
C          -3.33019719157185    0.36249155746431    0.12405592114872
C          -2.45370801386725   -0.70467642727280    0.11961190442880
C          -0.12098877749481   -2.73747757534728    0.09695194426533
C           0.45328005350055   -3.36044303609185   -1.18441606592761
C          -0.25653735434062   -2.83695807856138   -2.42758003834484
C           0.49562211895726   -3.32797319315240    1.37383291580900
C          -0.20812875559287   -2.81220373289800    2.62370517278339
H           2.77977873245146   -1.96317501436205    0.03353183638433
H           4.48582552609780   -0.22933884205719   -0.02535254259901
H           3.89832056128321    2.14987628787077   -0.05132438001830
H           1.52290222896024    2.85168331503563   -0.01504843582897
H          -1.17014692869989    2.97758596088778    0.04345906205963
H          -3.59568512000797    2.48609401812482    0.10249917842053
H          -4.39308921457799    0.17046442173025    0.14928146587136
H          -2.83816799978350   -1.71364690391995    0.14141823165658
H          -1.19220167450260   -2.96483445658651    0.11688291323376
H           0.33286782367772   -4.44388930636154   -1.12210297305247
H           1.51860769569793   -3.14654743667701   -1.26238563551024
H          -1.32164421292435   -3.05517275023751   -2.38281985893430
H           0.15215574430882   -3.30205715142501   -3.32122600470283
H          -0.13160666626888   -1.75999507451058   -2.51485216827762
H           1.55424283144504   -3.07740441596365    1.42939733626453
H           0.41008499745291   -4.41541694386599    1.32655470320735
H          -0.13173351009226   -1.72889030557925    2.68604180920268
H           0.24294051643210   -3.23894873180286    3.51612448428251
H          -1.26261849032565   -3.08058726093613    2.60983897263380
