# ORCA input file
# SCF done        -49.055755298350          0.000349014832
! B3LYP/G D3BJ Opt RIJCOSX def2-SVP def2/J
* xyz 0 1
   C        2.47766        -0.92777         0.02399
   C        3.44444         0.05831        -0.00971
   C        3.11192         1.41029        -0.02422
   C        1.79095         1.80578        -0.00408
   C        0.80274         0.83100         0.03099
   C        1.14084        -0.54526         0.04440
   N       -0.01472        -1.29595         0.07827
   C       -1.09075        -0.43642         0.08748
   C       -0.62798         0.90041         0.05932
   C       -1.52711         1.95878         0.06465
   C       -2.87753         1.67963         0.09734
   C       -3.33020         0.36249         0.12406
   C       -2.45371        -0.70468         0.11961
   C       -0.12099        -2.73748         0.09695
   C        0.45328        -3.36044        -1.18442
   C       -0.25654        -2.83696        -2.42758
   C        0.49562        -3.32797         1.37383
   C       -0.20813        -2.81220         2.62371
   H        2.77978        -1.96318         0.03353
   H        4.48583        -0.22934        -0.02535
   H        3.89832         2.14988        -0.05132
   H        1.52290         2.85168        -0.01505
   H       -1.17015         2.97759         0.04346
   H       -3.59569         2.48609         0.10250
   H       -4.39309         0.17046         0.14928
   H       -2.83817        -1.71365         0.14142
   H       -1.19220        -2.96483         0.11688
   H        0.33287        -4.44389        -1.12210
   H        1.51861        -3.14655        -1.26239
   H       -1.32164        -3.05517        -2.38282
   H        0.15216        -3.30206        -3.32123
   H       -0.13161        -1.76000        -2.51485
   H        1.55424        -3.07740         1.42940
   H        0.41008        -4.41542         1.32655
   H       -0.13173        -1.72889         2.68604
   H        0.24294        -3.23895         3.51612
   H       -1.26262        -3.08059         2.60984
*
