25
 SCF done        -40.925932670236          0.000940367452
C          -0.56851052110727    1.29100171934562    0.23624763692343
S          -1.85216437057156    0.17936209339096    0.41800705593186
C          -0.82857220829424   -1.17986013965466    0.26159628712675
C           0.47508028605911   -0.79502578989623    0.07277916735821
C           0.62746379611567    0.63995987030281    0.05859383365434
N           1.84586827534216    1.20680664820923   -0.11176859605507
C           2.86039225331070    0.40448244196368   -0.26324944004463
C           4.20296101237563    1.05302591820564   -0.40452592587066
C           4.84321934320795    1.26663674099910    0.97124944405219
O           6.13589863558544    1.78956476782733    0.77156642744119
C           2.70606888571544   -1.03094780716863   -0.25858523873477
C           3.88300032513607   -1.95680731577680   -0.45995554221023
N           3.56330567009830   -3.36734282502359   -0.39686507443483
N           1.54819203884519   -1.60540071574985   -0.09371030954954
H          -0.75032997948375    2.34546019212170    0.26832774238301
H          -1.22850294850169   -2.17163336104225    0.31390159976942
H           4.07693221693239    2.02983639491520   -0.87191723232711
H           4.87912910550115    0.45266901360174   -1.01159068728960
H           4.89524218577981    0.31114594952623    1.51597323806523
H           4.22187488666888    1.96048600372512    1.55348609310229
H           6.53745865198730    1.98112589520349    1.62500913875096
H           4.64520511725517   -1.74442819566585    0.29787649387006
H           4.32894331892297   -1.75360864454077   -1.44115109598113
H           3.14990192752468   -3.57983329655509    0.50569613455672
H           2.85416209559428   -3.58227555826408   -1.09071115048815
