14
 SCF done        -25.121223230711          0.000756267396
C          -1.48803936785283    0.17743699066363    0.16500139845803
S          -0.34930931083245    1.22702062610733   -0.58706397359939
C           0.82297138468463   -0.03283033536875   -0.69503997805834
C           0.35023638517772   -1.19512326846671   -0.17671426985272
C          -0.98847313497367   -1.07448798496773    0.32294445495055
O          -1.65383697457899   -2.11353248673617    0.88450224142681
O           0.96147765965904   -2.41321773750961   -0.07358081574079
C           2.27323658771047   -2.49850106041214   -0.57373336617263
H          -2.45472258081629    0.53834369887769    0.44646954544189
H           1.77596029384602    0.17794216476697   -1.13393978818162
H          -1.06266593743208   -2.87820649481474    0.87046355660928
H           2.59197262773485   -3.52552593553459   -0.40981160664740
H           2.94315754372875   -1.81701887161459   -0.04074706768047
H           2.30352482394494   -2.26982930499051   -1.64326033095295
