# ORCA input file
# SCF done        -39.464471229599          0.000871655886
! B3LYP/G D3BJ Opt RIJCOSX def2-SVP def2/J
* xyz 0 1
   C        0.18322         0.97758        -0.20404
   S        1.78268         0.38817        -0.24231
   C        1.24953        -1.26753        -0.12084
   C       -0.12345        -1.32006        -0.05746
   C       -0.73564        -0.03033        -0.10397
   C       -2.12731         0.19285        -0.04875
   N       -3.25380         0.39224         0.00037
   C       -1.00552        -2.52349         0.05440
   F       -0.35905        -3.69673         0.05354
   F       -1.72945        -2.50032         1.18755
   F       -1.88539        -2.58564        -0.95981
   C        2.21737        -2.33640        -0.09728
   C        3.53070        -2.14303        -0.17318
   H       -0.01281         2.03020        -0.25543
   H        1.82345        -3.33778        -0.01125
   H        3.95861        -1.15716        -0.26095
   H        4.21795        -2.96934        -0.15128
*
