17
 SCF done        -39.464471229599          0.000871655886
C           0.18322353085332    0.97757511942337   -0.20404415987045
S           1.78268464814120    0.38816597832420   -0.24231021470481
C           1.24952678053598   -1.26752932738994   -0.12084142968081
C          -0.12344789965756   -1.32005714680925   -0.05746042332791
C          -0.73564494291292   -0.03032958329237   -0.10397332537398
C          -2.12731443319997    0.19284796510383   -0.04875038911159
N          -3.25379894609239    0.39223906550939    0.00036814265993
C          -1.00551824089250   -2.52349245243451    0.05439981672221
F          -0.35905398810511   -3.69673321984173    0.05353933127257
F          -1.72944805564102   -2.50031703624271    1.18755129356582
F          -1.88539437837981   -2.58564347144655   -0.95980902212256
C           2.21736955430252   -2.33639819383830   -0.09727660177514
C           3.53069859179477   -2.14302888240213   -0.17318037864418
H          -0.01281427873380    2.03020180412871   -0.25542686958335
H           1.82344740971824   -3.33777874645629   -0.01124519799948
H           3.95860938835232   -1.15716102547947   -0.26095274804156
H           4.21794525991679   -2.96934084685638   -0.15127782398471
