# ORCA input file
# SCF done        -60.757778494680          0.000210845053
! B3LYP/G D3BJ Opt RIJCOSX def2-SVP def2/J
* xyz 0 1
   N       -1.51287        -0.07581        -0.77747
   C       -1.96813         1.20313        -0.66255
   O       -3.06893         1.58659        -0.97980
   C       -0.83571         2.03231        -0.04429
   C        0.25145         1.01948         0.13502
   C       -0.21767        -0.22262        -0.30067
   C        0.56604        -1.35429        -0.24379
   C        1.85909        -1.24000         0.26490
   C        2.32302        -0.00413         0.69586
   C        1.52648         1.13256         0.63888
   C        2.72844        -2.45743         0.35676
   C       -1.32215         2.64654         1.28636
   C       -2.18758         1.62189         2.03020
   O       -1.86453         0.51675         2.39591
   N       -3.41932         2.18047         2.19452
   C       -3.50355         3.45074         1.64160
   C       -2.26338         3.79479         1.09807
   C       -2.09239         5.02375         0.50341
   C       -3.16921         5.89987         0.46503
   C       -4.40383         5.56006         1.00364
   C       -5.55609         6.51510         0.92294
   C       -4.57693         4.31429         1.60390
   H       -2.09098        -0.83922        -1.09132
   H       -0.54990         2.84278        -0.72072
   H        0.19210        -2.31030        -0.57836
   H        3.32617         0.07424         1.08821
   H        1.90736         2.08332         0.98172
   H        2.40834        -3.08014         1.19206
   H        3.76816        -2.18312         0.51478
   H        2.65512        -3.05322        -0.55088
   H       -0.44941         2.91110         1.89006
   H       -4.19970         1.68352         2.59400
   H       -1.14188         5.30824         0.07664
   H       -3.04594         6.86785         0.00216
   H       -5.20627         7.53958         0.82343
   H       -6.18502         6.44043         1.80716
   H       -6.17021         6.28073         0.05316
   H       -5.53218         4.03572         2.02297
*
