38
 SCF done        -60.757778494680          0.000210845053
N          -1.51286548306451   -0.07581450187146   -0.77747359380784
C          -1.96813277881648    1.20312868097472   -0.66254654210747
O          -3.06892855332101    1.58658790831490   -0.97979746776975
C          -0.83570563725591    2.03230505633598   -0.04429318687654
C           0.25144673953951    1.01947876378012    0.13502231869319
C          -0.21766679154033   -0.22261531128970   -0.30066909362705
C           0.56604496842982   -1.35428735413906   -0.24378788793860
C           1.85908799836317   -1.23999700060302    0.26490445817131
C           2.32301819719760   -0.00413282548912    0.69585968151483
C           1.52647540375204    1.13256426680980    0.63888102204067
C           2.72843602368622   -2.45742787975801    0.35676046255477
C          -1.32214906403051    2.64653938854500    1.28636023746728
C          -2.18757616636972    1.62189330018235    2.03020441512938
O          -1.86452984606105    0.51674881378605    2.39590982656048
N          -3.41932330236530    2.18047183110686    2.19451777427526
C          -3.50355462804150    3.45074362477949    1.64160319743522
C          -2.26338387751167    3.79479377379960    1.09807160493894
C          -2.09239463341577    5.02374968478908    0.50341423447291
C          -3.16920939184025    5.89987327993940    0.46503217018001
C          -4.40383418067017    5.56006019449217    1.00363611867145
C          -5.55609208650722    6.51510271805217    0.92294015570921
C          -4.57692978595992    4.31428580847465    1.60389667937236
H          -2.09098368091150   -0.83922452823104   -1.09131894574654
H          -0.54989733695744    2.84277880563372   -0.72072233063892
H           0.19210413794615   -2.31029574862313   -0.57836052542878
H           3.32617316588717    0.07424272632673    1.08820566324523
H           1.90735974930679    2.08331661240904    0.98172053228418
H           2.40833790181473   -3.08014427403910    1.19206426803506
H           3.76815600643218   -2.18311544352292    0.51478474054960
H           2.65511982160703   -3.05321904407100   -0.55088465625363
H          -0.44941152701630    2.91109896098396    1.89005855717509
H          -4.19969561417293    1.68352361996856    2.59399719174406
H          -1.14188346765622    5.30823785002933    0.07663848196871
H          -3.04594230496362    6.86784666835773    0.00216467652519
H          -5.20626767293574    7.53957973019604    0.82343206187933
H          -6.18502020844440    6.44043482926721    1.80716410161744
H          -6.17020565320574    6.28072556063507    0.05316322602590
H          -5.53217644092908    4.03572145366937    2.02296637195760
