# ORCA input file
# SCF done        -25.927561381012          0.000286260362
! B3LYP/G D3BJ Opt RIJCOSX def2-SVP def2/J
* xyz 0 1
   C       -1.24170        -1.24965         0.00102
   S       -2.41961         0.02123         0.00158
   C       -1.21700         1.26875         0.00642
   C        0.01823         0.71374         0.00533
   C        0.00418        -0.71898         0.00226
   N        1.31920        -1.12507         0.00188
   C        2.15762        -0.02366         0.00365
   O        3.36188        -0.03548         0.00378
   N        1.34096         1.09397         0.00665
   H       -1.56033        -2.27066        -0.00094
   H       -1.51551         2.29582         0.00885
   H        1.65826        -2.07074        -0.00068
   H        1.69842         2.03285         0.00808
*
