13
 SCF done        -25.927561381012          0.000286260362
C          -1.24169890414756   -1.24964789719668    0.00101592688827
S          -2.41961404005790    0.02123339298198    0.00158093574822
C          -1.21699994824960    1.26874665490212    0.00641754286276
C           0.01822500760340    0.71373924019700    0.00533480181416
C           0.00417549567136   -0.71897832414328    0.00226381297054
N           1.31919524840610   -1.12506880557430    0.00188140944518
C           2.15761856455116   -0.02365690369292    0.00365248751282
O           3.36187644811136   -0.03548197668212    0.00377885061301
N           1.34095685264392    1.09397458242759    0.00665465562725
H          -1.56033000141716   -2.27066170222321   -0.00094182510164
H          -1.51550775398649    2.29582382867674    0.00884812461178
H           1.65826072212947   -2.07073786121955   -0.00067505490615
H           1.69842230874194    2.03284577154664    0.00807833191379
