# ORCA input file
# SCF done        -30.759044475869          0.000931212039
! B3LYP/G D3BJ Opt RIJCOSX def2-SVP def2/J
* xyz 0 1
   C        1.49905        -1.28263        -0.12861
   S        2.73505        -0.09528        -0.07647
   C        1.55541         1.18611         0.05103
   C        0.27833         0.67751         0.03131
   C        0.25324        -0.73954        -0.06883
   C       -1.01663        -1.53146        -0.13272
   C       -2.20186        -0.69379         0.33871
   C       -2.18530         0.65651        -0.36915
   C       -0.98428         1.47940         0.09364
   C        2.06295         2.53116         0.14231
   C        1.40962         3.61883         0.54338
   H        1.76507        -2.31872        -0.20190
   H       -0.92021        -2.43871         0.46844
   H       -1.18439        -1.84385        -1.16910
   H       -2.13763        -0.53781         1.41800
   H       -3.13293        -1.22357         0.12895
   H       -3.10404         1.20753        -0.15996
   H       -2.12690         0.49640        -1.44804
   H       -1.14972         1.80194         1.12735
   H       -0.88261         2.37604        -0.52256
   H        3.10707         2.62224        -0.13430
   H        0.38735         3.60349         0.87467
   H        1.90340         4.57526         0.56855
*
