23
 SCF done        -30.759044475869          0.000931212039
C           1.49904601386755   -1.28263270212577   -0.12861281066405
S           2.73505443870227   -0.09528026397471   -0.07646903143676
C           1.55541320856163    1.18610820073079    0.05103174714507
C           0.27832678293584    0.67750687590642    0.03131418666530
C           0.25324460672780   -0.73953862767257   -0.06883304927509
C          -1.01662694169220   -1.53145744995320   -0.13271809552470
C          -2.20186133855954   -0.69379321886330    0.33871080899694
C          -2.18530029208748    0.65651332747920   -0.36914810880570
C          -0.98428365458453    1.47940257693322    0.09364464089787
C           2.06294964812011    2.53115596734311    0.14231344684475
C           1.40962091991257    3.61883050230147    0.54337538828922
H           1.76507189728983   -2.31872047508064   -0.20190139509369
H          -0.92020666556596   -2.43871441069773    0.46844406594076
H          -1.18438663739941   -1.84385361081246   -1.16909945473721
H          -2.13762847681583   -0.53780556103359    1.41799960389720
H          -3.13292906697199   -1.22356983291445    0.12894629183355
H          -3.10403873587168    1.20753240888960   -0.15995645115403
H          -2.12690271178794    0.49639539976258   -1.44803740467064
H          -1.14972389065642    1.80193726575453    1.12735459662087
H          -0.88260963074074    2.37603570330793   -0.52256038666945
H           3.10707036069619    2.62224083606095   -0.13430024775335
H           0.38735382258816    3.60348949684760    0.87467352692821
H           1.90339634333177    4.57525759181115    0.56854813172483
