20
 SCF done        -33.872934082231          0.000850874477
C          -0.01439192236388    0.99393829463744   -0.25859777352037
S          -0.99437680987542   -0.41719607186998   -0.28861318877115
C           0.37293646396175   -1.43078085991946    0.11098564850666
N           0.17821474252329   -2.77365836679630    0.30577984151212
C           1.32040651239054   -3.65790035413227    0.33666479940136
C           1.50790384994071   -0.69034320280842    0.25061357166682
C           1.28364035220045    0.69864503920194    0.04073286753469
C           2.36661628055514    1.68492450829857    0.13912603740775
O           3.50980428618045    1.42589590396157    0.42776963212490
O           1.94224409927546    2.93216750477305   -0.13891173275343
C           2.92806090516719    3.94970412812186   -0.06670321454987
H          -0.44910912288923    1.95128354190359   -0.45807720026206
H          -0.64135909896139   -3.14914094867619   -0.14812339954552
H           1.98807363810517   -3.34617840449398    1.13896034083581
H           1.88239871838312   -3.65831970871194   -0.60483775907090
H           0.97264994973856   -4.66716237436125    0.54447166977546
H           2.47760238747990   -1.08106637566165    0.49026619552204
H           2.47848811145802    4.84190422864058   -0.49539127595856
H           3.81785126912790    3.65691653842620   -0.62821781181387
H           3.21291538760228    4.12845697946672    0.97281275195805
