# ORCA input file
# SCF done        -33.872934082231          0.000850874477
! B3LYP/G D3BJ Opt RIJCOSX def2-SVP def2/J
* xyz 0 1
   C       -0.01439         0.99394        -0.25860
   S       -0.99438        -0.41720        -0.28861
   C        0.37294        -1.43078         0.11099
   N        0.17821        -2.77366         0.30578
   C        1.32041        -3.65790         0.33666
   C        1.50790        -0.69034         0.25061
   C        1.28364         0.69865         0.04073
   C        2.36662         1.68492         0.13913
   O        3.50980         1.42590         0.42777
   O        1.94224         2.93217        -0.13891
   C        2.92806         3.94970        -0.06670
   H       -0.44911         1.95128        -0.45808
   H       -0.64136        -3.14914        -0.14812
   H        1.98807        -3.34618         1.13896
   H        1.88240        -3.65832        -0.60484
   H        0.97265        -4.66716         0.54447
   H        2.47760        -1.08107         0.49027
   H        2.47849         4.84190        -0.49539
   H        3.81785         3.65692        -0.62822
   H        3.21292         4.12846         0.97281
*
