# ORCA input file
# SCF done        -36.947721243809          0.000426672988
! B3LYP/G D3BJ Opt RIJCOSX def2-SVP def2/J
* xyz 0 1
   C        1.49462        -1.28874         0.03040
   S        2.71679        -0.08840         0.14798
   C        1.52638         1.18247         0.12366
   C        0.25802         0.65759         0.02009
   C        0.24273        -0.76062        -0.02788
   C       -1.01909        -1.55110        -0.17395
   C       -2.21457        -0.73655         0.31162
   C       -2.22595         0.62977        -0.36706
   C       -1.00292         1.47958         0.00635
   C       -1.14434         2.05952         1.39346
   O       -0.99140         3.21419         1.67587
   C        1.91034         2.56714         0.19653
   C        3.16386         2.99657         0.31013
   H        1.77405        -2.32343         0.00515
   H       -0.93915        -2.48960         0.37818
   H       -1.15793        -1.80295        -1.23064
   H       -2.16211        -0.62006         1.39526
   H       -3.13996        -1.26682         0.07962
   H       -3.13276         1.17706        -0.10029
   H       -2.22976         0.48558        -1.45007
   H       -0.90151         2.31064        -0.69970
   H       -1.38039         1.30934         2.17136
   H        1.09604         3.27751         0.16573
   H        3.99296         2.30937         0.35642
   H        3.39667         4.04485         0.36374
*
