# ORCA input file
# SCF done        -33.559199084458          0.000365338514
! B3LYP/G D3BJ Opt RIJCOSX def2-SVP def2/J
* xyz 0 1
   C        1.47340         0.71176         0.65501
   C        0.22182         1.19022         0.48034
   O       -0.29339         2.43841         0.59867
   C        0.61571         3.44467         0.98077
   S       -0.90633        -0.05438         0.01726
   C        0.37405        -1.24296         0.06911
   O        0.16669        -2.54379        -0.21557
   C       -1.14838        -2.92297        -0.53988
   C        1.58092        -0.69621         0.42145
   C        2.78649        -1.48831         0.52942
   C        3.99159        -1.03244         0.85445
   H        2.31317         1.31494         0.94213
   H        0.03730         4.36510         1.02548
   H        1.42001         3.54934         0.24597
   H        1.04885         3.23240         1.96314
   H       -1.11451        -3.99135        -0.74411
   H       -1.50617        -2.38633        -1.42491
   H       -1.83201        -2.72480         0.29231
   H        2.64352        -2.53890         0.31650
   H        4.17993         0.00447         1.07256
   H        4.84070        -1.69078         0.91175
*
