# ORCA input file
# SCF done        -41.544582997814          0.000512126737
! B3LYP/G D3BJ Opt RIJCOSX def2-SVP def2/J
* xyz 0 1
   C       -0.43598        -1.50592         0.27680
   N       -1.72794        -1.21919        -0.04171
   C       -2.84396        -2.12312         0.07949
   C       -3.27903        -2.28587         1.53369
   C       -1.87884         0.12925        -0.44832
   O       -2.93993         0.60977        -0.77864
   C       -0.53693         0.66430        -0.36148
   C        0.33144        -0.39542         0.09629
   C        1.67399         0.13821         0.17871
   O        2.73657        -0.34488         0.50012
   N        1.52536         1.48331        -0.23966
   C        2.62394         2.41598        -0.25713
   C        2.56507         3.37641         0.92765
   C        0.23106         1.77390        -0.54522
   H       -0.15648        -2.49108         0.60260
   H       -2.56922        -3.09236        -0.34743
   H       -3.65839        -1.68973        -0.50723
   H       -2.46339        -2.67910         2.13676
   H       -4.11995        -2.97085         1.59413
   H       -3.58184        -1.32489         1.94198
   H        2.61069         2.97194        -1.19954
   H        3.53683         1.81641        -0.20715
   H        1.65042         3.96450         0.90153
   H        3.41521         4.05202         0.89833
   H        2.59418         2.82006         1.86110
   H       -0.04675         2.75616        -0.88224
*
