# ORCA input file
# SCF done        -57.176983275319          0.000784476251
! B3LYP/G D3BJ Opt RIJCOSX def2-SVP def2/J
* xyz 0 1
   C        1.60491         0.72520        -0.04224
   S        2.52682        -0.67711         0.31095
   C        1.09940        -1.61544         0.46231
   C       -0.02592        -0.88133         0.25312
   C        0.26787         0.47765        -0.04191
   C       -0.79012         1.48837        -0.36368
   C       -2.17877         1.02319         0.09126
   C       -2.34933         1.27658         1.58789
   F       -2.39098         2.59243         1.84399
   F       -3.49867         0.76236         2.05910
   F       -1.37330         0.77607         2.35196
   C       -2.45319        -0.45354        -0.24177
   C       -2.51522        -0.66070        -1.75387
   F       -3.31055         0.24017        -2.35463
   F       -1.33295        -0.59275        -2.37333
   F       -3.02415        -1.86701        -2.04628
   C       -1.42338        -1.40747         0.37637
   H        2.10229         1.65460        -0.23367
   H        1.17066        -2.65683         0.70384
   H       -0.80925         1.65598        -1.44411
   H       -0.55380         2.44613         0.10625
   H       -2.94615         1.64348        -0.38766
   H       -3.45514        -0.71763         0.11817
   H       -1.50183        -2.38700        -0.10152
   H       -1.66037        -1.54615         1.43489
*
