14
 SCF done        -24.014039640699          0.000421857148
C          -0.21365478199710    1.06896230983950    0.07679348290387
O          -1.01052699768076    0.01526176902729    0.23861585300785
C          -0.24195064592068   -1.08659680999807    0.14060550280858
C           1.05316861470524   -0.75160934432416   -0.08615892124432
C           1.08592760828164    0.67482110015877   -0.13053669270575
C           2.22583047168138    1.57479745542639   -0.34598081235752
O           2.09720775566763    2.77832072629604   -0.35896612200888
C           3.55590957178491    0.89298871409096   -0.54757906689440
H          -0.64581422134439    2.04892905437567    0.12240187948577
H          -0.72894748707082   -2.03545040788180    0.24827397172317
H           1.87630150905071   -1.42453373699856   -0.20628046311604
H           3.50424338484060    0.23351384984511   -1.41129134166060
H           3.79724673220763    0.29452835342027    0.32791344826271
H           4.33100848579402    1.63796696672259   -0.70399071820441
