# ORCA input file
# SCF done        -24.014039640699          0.000421857148
! B3LYP/G D3BJ Opt RIJCOSX def2-SVP def2/J
* xyz 0 1
   C       -0.21365         1.06896         0.07679
   O       -1.01053         0.01526         0.23862
   C       -0.24195        -1.08660         0.14061
   C        1.05317        -0.75161        -0.08616
   C        1.08593         0.67482        -0.13054
   C        2.22583         1.57480        -0.34598
   O        2.09721         2.77832        -0.35897
   C        3.55591         0.89299        -0.54758
   H       -0.64581         2.04893         0.12240
   H       -0.72895        -2.03545         0.24827
   H        1.87630        -1.42453        -0.20628
   H        3.50424         0.23351        -1.41129
   H        3.79725         0.29453         0.32791
   H        4.33101         1.63797        -0.70399
*
