29
 SCF done        -37.091074417510          0.000596978620
C           1.27084959300992   -1.29919961056559    0.37731605789450
S           2.52742430933328   -0.13375557071054    0.34311727610689
C           1.37498350645276    1.16123994902601    0.13109608922674
C           0.08930445979395    0.67293042504348    0.11148129826046
C           0.03693756913145   -0.73921634301467    0.25048416629188
C          -1.24258420015880   -1.51473643401852    0.28850943388107
C          -2.41642290917515   -0.68679265135810   -0.23969089459218
C          -2.38191781666978   -0.63210744167311   -1.76669128978583
C          -2.40585818439526    0.71909889204954    0.38022742194597
C          -2.51325991802482    0.66682220167676    1.90415416786615
C          -1.15120943666805    1.49518896942615   -0.03445934118941
C           1.91014184679646    2.49365041876806    0.01677768124922
C           1.29023330033697    3.58651839222711   -0.42229798740812
H           1.51491673328187   -2.33709317170748    0.49140847872624
H          -1.44104880083957   -1.82213609098267    1.31947583160582
H          -1.13716226693762   -2.42867412386283   -0.30149585074744
H          -3.34884034031143   -1.17958380579995    0.06024887024512
H          -1.40841275906276   -0.30350938146825   -2.12106362904768
H          -3.14051309445230    0.04991239206460   -2.14510290975939
H          -2.57533633182703   -1.61939593551276   -2.18083183931919
H          -3.28078507959609    1.25923473679587   -0.00096901429716
H          -1.59176431171604    0.29598767542412    2.34550910098489
H          -3.33335568443676    0.02090308944829    2.21116135114518
H          -2.69822622384939    1.66322367063109    2.30058479331055
H          -1.06575048641937    2.39641487318176    0.57812924131958
H          -1.24807055268709    1.81575061289251   -1.07612108780181
H           2.95118170548808    2.56851196858334    0.30830230538231
H           0.27292776303467    3.59076259381589   -0.76706488383309
H           1.80890761056742    4.52919969962006   -0.46201483766050
