# ORCA input file
# SCF done        -20.012190438473          0.000181100047
! B3LYP/G D3BJ Opt RIJCOSX def2-SVP def2/J
* xyz 0 1
   C        0.10149         1.17915        -0.05369
   S       -1.07095        -0.06360        -0.09818
   C        0.16828        -1.27675        -0.00657
   C       -0.16506        -2.68372        -0.00080
   O        0.63843        -3.58189         0.06098
   C        1.41767        -0.70329         0.05426
   C        1.37596         0.69769         0.02732
   H       -0.21473         2.20332        -0.08971
   H       -1.25318        -2.88238        -0.05948
   H        2.31556        -1.29102         0.11562
   H        2.24650         1.32739         0.06576
*
