11
 SCF done        -20.012190438473          0.000181100047
C           0.10149231468002    1.17915295231637   -0.05369104090060
S          -1.07094685076583   -0.06359881969433   -0.09817509251838
C           0.16828466226556   -1.27674562375099   -0.00656847813945
C          -0.16506300275441   -2.68372282615338   -0.00079575622747
O           0.63842963116439   -3.58188932544984    0.06098358053652
C           1.41767221657033   -0.70329260726949    0.05426430821718
C           1.37595952882976    0.69768940040964    0.02732308173975
H          -0.21472889946582    2.20332470478973   -0.08970583101509
H          -1.25317579195525   -2.88237517472813   -0.05948094275030
H           2.31556126520301   -1.29102269789980    0.11562038735749
H           2.24650492622824    1.32739001743023    0.06575578370035
