# ORCA input file
# SCF done        -47.507006825962          0.000990590600
! B3LYP/G D3BJ Opt RIJCOSX def2-SVP def2/J
* xyz 0 1
   C        1.49440         1.17968        -0.08011
   S        2.76188         0.07435        -0.40647
   C        1.62851        -1.18842        -0.68203
   C        0.34177        -0.77988        -0.52814
   C        0.26606         0.59744        -0.17346
   C       -1.05493         1.29268         0.07245
   C       -1.15927         1.45556         1.56561
   O       -1.79313         0.77897         2.32212
   C       -0.30821         2.61682         2.17393
   F       -0.00262         3.58040         1.29052
   F       -0.96729         3.20655         3.17288
   F        0.85097         2.16507         2.67166
   C       -2.22220         0.46924        -0.48426
   C       -2.10145        -1.00910        -0.12272
   C       -0.86883        -1.62044        -0.78118
   H        1.73902         2.19748         0.14750
   H        1.97984        -2.16417        -0.95176
   H       -1.03286         2.28543        -0.38898
   H       -2.23381         0.57825        -1.57076
   H       -3.15679         0.87095        -0.08960
   H       -2.99488        -1.53773        -0.45782
   H       -2.03541        -1.11481         0.95935
   H       -1.02639        -1.68147        -1.86345
   H       -0.70270        -2.63602        -0.41804
*
