24
 SCF done        -47.507006825962          0.000990590600
C           1.49440306274340    1.17967844533108   -0.08010728624852
S           2.76187731019491    0.07435308588587   -0.40647223884651
C           1.62850592603481   -1.18841601532713   -0.68203229164366
C           0.34176781837192   -0.77987806094811   -0.52813802691912
C           0.26606254306416    0.59744252134433   -0.17346215564651
C          -1.05493452438598    1.29267866734580    0.07244939022738
C          -1.15926857556659    1.45555710291868    1.56561111053558
O          -1.79312704587853    0.77897322281309    2.32211622259517
C          -0.30820624936265    2.61682356291412    2.17393411911733
F          -0.00262374242941    3.58040373336326    1.29051604878772
F          -0.96728969949013    3.20655429525041    3.17288345834536
F           0.85097421582331    2.16507177765372    2.67166380607391
C          -2.22219866024616    0.46923887780116   -0.48425969588159
C          -2.10145057545336   -1.00909772622061   -0.12272449450419
C          -0.86882757946489   -1.62044311239481   -0.78118127463492
H           1.73902411794559    2.19748435753134    0.14750322927851
H           1.97984056236291   -2.16417027560487   -0.95175595837362
H          -1.03286181516305    2.28542811067606   -0.38897902780497
H          -2.23380703608417    0.57825260468919   -1.57076354217078
H          -3.15678783421693    0.87094848391814   -0.08959537949634
H          -2.99487917538270   -1.53772747153454   -0.45781987288945
H          -2.03540554168998   -1.11481048802846    0.95935037952754
H          -1.02638621141195   -1.68146542431019   -1.86345490097777
H          -0.70270129031449   -2.63602027506753   -0.41804161845069
