18
 SCF done        -37.902809534365          0.000123026286
C          -1.12331962707164   -1.41100304456401    0.13560798782368
S          -2.36532300282065   -0.21829736102847    0.11077648912411
C          -1.26317445023737    1.12207977803697    0.01432400042880
C           0.03628075270238    0.63719559800208    0.00241986915226
C           0.08802319326286   -0.79694138556781    0.07176660988050
O           1.36537864166759   -1.23550573783801    0.05828911373344
C           2.12523762893036   -0.10772303860855   -0.01797099867754
N           3.53160622386967   -0.25641670956189   -0.04938543805424
O           4.18007418328178    0.77255995145509   -0.11607622392812
O           3.98931913488420   -1.37754635254009   -0.00872157121801
C           1.39322727478732    1.04821258275483   -0.05488807790010
C          -1.78247298365134    2.45680533757415   -0.03779519451622
C          -1.04807726699417    3.56603604466370   -0.11718998265705
H          -1.36352457695850   -2.45164031841711    0.19354875523809
H           1.80577009843340    2.03379509223463   -0.11439916661817
H          -2.86197285987545    2.52221157923089   -0.00853991604027
H           0.02600536440677    3.54123917665978   -0.14934698499888
H          -1.51073772861724    4.53598880751384   -0.15265927077227
