# ORCA input file
# SCF done        -37.902809534365          0.000123026286
! B3LYP/G D3BJ Opt RIJCOSX def2-SVP def2/J
* xyz 0 1
   C       -1.12332        -1.41100         0.13561
   S       -2.36532        -0.21830         0.11078
   C       -1.26317         1.12208         0.01432
   C        0.03628         0.63720         0.00242
   C        0.08802        -0.79694         0.07177
   O        1.36538        -1.23551         0.05829
   C        2.12524        -0.10772        -0.01797
   N        3.53161        -0.25642        -0.04939
   O        4.18007         0.77256        -0.11608
   O        3.98932        -1.37755        -0.00872
   C        1.39323         1.04821        -0.05489
   C       -1.78247         2.45681        -0.03780
   C       -1.04808         3.56604        -0.11719
   H       -1.36352        -2.45164         0.19355
   H        1.80577         2.03380        -0.11440
   H       -2.86197         2.52221        -0.00854
   H        0.02601         3.54124        -0.14935
   H       -1.51074         4.53599        -0.15266
*
