# ORCA input file
# SCF done        -25.181728563214          0.000967710646
! B3LYP/G D3BJ Opt RIJCOSX def2-SVP def2/J
* xyz 0 1
   C       -1.22387        -0.02451        -0.21377
   O       -0.46492         1.09889        -0.11672
   C        0.78757         0.63220         0.01131
   C        2.26647         0.84408         0.17377
   C        2.35633        -0.71970         0.16244
   C        0.84736        -0.72102        -0.00077
   C       -0.48469        -1.19489        -0.15063
   C       -0.94369        -2.56527        -0.21823
   C       -2.20671        -2.94941        -0.35923
   H       -2.27832         0.12637        -0.32586
   H        2.56993         1.31403         1.10768
   H        2.76099         1.33828        -0.66089
   H        2.71676        -1.15658         1.09138
   H        2.90867        -1.13315        -0.67860
   H       -0.15698        -3.30609        -0.14457
   H       -3.01286        -2.24056        -0.43743
   H       -2.47700        -3.99036        -0.40223
*
