# ORCA input file
# SCF done        -23.620667688513          0.000802900097
! B3LYP/G D3BJ Opt RIJCOSX def2-SVP def2/J
* xyz 0 1
   C        1.37035        -1.16537        -0.14153
   S        1.79402         0.50009        -0.11412
   C        0.13551         0.97863         0.06227
   C       -0.68423        -0.13678         0.09451
   C        0.03489        -1.35744        -0.02336
   C       -2.08179        -0.12926         0.22826
   N       -3.22303        -0.18945         0.33598
   C       -0.17416         2.38098         0.14862
   C       -1.39124         2.90346         0.28361
   H        2.13959        -1.90467        -0.24430
   H       -0.44263        -2.32101        -0.01769
   H        0.69043         3.03102         0.09391
   H       -2.27727         2.29480         0.34073
   H       -1.53124         3.96862         0.34027
*
