23
 SCF done        -34.567280683378          0.000548635126
C           1.02196693063068   -1.27425431327059    0.07282427206577
C           2.06822578526026   -0.45882182500299   -0.01135530791119
C           3.48649826392812   -0.92942473003140   -0.14091552067512
C           3.87055617210754   -1.04011845471320   -1.61932812938099
C           1.71962004770394    0.98050314941216   -0.04312061931603
C           2.77404790242187    2.04707265833067   -0.02639350328954
C           3.19491312473284    2.34842754995407    1.41498905265418
C           0.41402257354940    1.22859295676983   -0.02081940900443
S          -0.48804987095462   -0.31379761901145    0.08000421385090
O          -1.24950385855104   -0.55701113053551   -1.11494795555580
O          -1.17353780238646   -0.41975163311222    1.33922324727787
H           1.01807169605685   -2.34443557774811    0.10398850763957
H           3.57901819992732   -1.91172298964875    0.32442784453120
H           4.16805955420431   -0.24667167374771    0.36543791364200
H           3.22184380934031   -1.75306426858145   -2.12124664232594
H           4.89965231403109   -1.37729074481283   -1.71456872246287
H           3.77100918599630   -0.08082137934640   -2.12117287268509
H           2.36854160715226    2.95499446281841   -0.47503738917984
H           3.64368557981162    1.73932420210141   -0.60622456620323
H           2.34155935261797    2.70316082911269    1.98685963562567
H           3.96613730833323    3.11443573114210    1.42744940368302
H           3.58181772164567    1.45732875732265    1.90286432548085
H          -0.07918559755935    2.17882604259863   -0.02958777846080
