11
 SCF done        -16.150108129984          0.000488792243
C           0.68802950881557    1.21791479359885    0.00083304637021
C           1.43669402354301    0.05171653342219    0.00122867913393
C           0.77339769738260   -1.16505988045215    0.00378834788172
C          -0.61377760865646   -1.15602012094542    0.00568868460211
N          -1.33358943555863   -0.04752214625754    0.00548128747870
C          -0.69494206666550    1.10963766924200    0.00317367366599
H           1.16435326756859    2.18635272025256   -0.00147654131641
H           2.51686058298515    0.09041306853192   -0.00040045581967
H           1.31780110910576   -2.09693313118436    0.00459118961303
H          -1.17884524569178   -2.07933057094412    0.00835714986528
H          -1.32463183282832    1.99015106473609    0.00245493852511
