# ORCA input file
# SCF done        -16.150108129984          0.000488792243
! B3LYP/G D3BJ Opt RIJCOSX def2-SVP def2/J
* xyz 0 1
   C        0.68803         1.21791         0.00083
   C        1.43669         0.05172         0.00123
   C        0.77340        -1.16506         0.00379
   C       -0.61378        -1.15602         0.00569
   N       -1.33359        -0.04752         0.00548
   C       -0.69494         1.10964         0.00317
   H        1.16435         2.18635        -0.00148
   H        2.51686         0.09041        -0.00040
   H        1.31780        -2.09693         0.00459
   H       -1.17885        -2.07933         0.00836
   H       -1.32463         1.99015         0.00245
*
