# ORCA input file
# SCF done        -17.814802196506          0.000726689008
! B3LYP/G D3BJ Opt RIJCOSX def2-SVP def2/J
* xyz 0 1
   C        0.05956        -1.03148        -0.00953
   O        1.32565        -0.57606        -0.01264
   C        1.25838         0.76411        -0.00488
   C       -0.03599         1.17864         0.00215
   C       -0.83171         0.00062         0.00062
   C       -2.32038        -0.07318         0.00800
   H       -0.08036        -2.09429        -0.01475
   H        2.18491         1.30325        -0.00590
   H       -0.39024         2.18925         0.00862
   H       -2.74437         0.92712         0.00609
   H       -2.67361        -0.60088         0.89259
   H       -2.68179        -0.60806        -0.86884
*
