24
 SCF done        -32.376297064030          0.000515086382
C           0.87933965151654   -0.31969917732058   -0.44066562210805
C           2.33546782932019   -0.15308810352344   -0.15669493388318
C           3.21692181802062    0.51446261486643   -0.89749889208978
O           4.53390584050827    0.45935904657646   -0.48998543501191
C           5.40946648620780    1.53102886269278   -0.75261030746232
C           5.01697144673862    2.85485245629967   -0.08581209753257
C           4.02624536606473    3.72934391962085   -0.86690956711321
O           2.68520683175387    3.30340450668500   -0.75963697325837
C           2.16129922836661    2.59147404989389   -1.85180504534971
C           2.86993046070806    1.25924849025526   -2.15822583125864
H           0.55520623744818   -1.31806947161642   -0.15133641491756
H           0.64883601976795   -0.17023979535393   -1.49217832138855
H           0.29775647106115    0.39777667447854    0.13968706792171
H           2.70374078465477   -0.63245016876729    0.73869074414622
H           5.56238295473349    1.68222416019906   -1.83106522011765
H           6.35788804924978    1.18610856597572   -0.33003614299648
H           5.92673106167309    3.43844720859131    0.06347100566325
H           4.58231960288758    2.63519843010819    0.89051623899569
H           4.32902697934807    3.80824798562057   -1.91966228915373
H           4.04983422689593    4.73533317608140   -0.43060934343191
H           2.16924675051491    3.22145233060675   -2.75652960922922
H           1.12510532691999    2.39978416209295   -1.56672211071417
H           3.77098817035245    1.44011356424819   -2.74485741206931
H           2.20074240528779    0.65304651168877   -2.77109348764072
