# ORCA input file
# SCF done        -32.376297064030          0.000515086382
! B3LYP/G D3BJ Opt RIJCOSX def2-SVP def2/J
* xyz 0 1
   C        0.87934        -0.31970        -0.44067
   C        2.33547        -0.15309        -0.15669
   C        3.21692         0.51446        -0.89750
   O        4.53391         0.45936        -0.48999
   C        5.40947         1.53103        -0.75261
   C        5.01697         2.85485        -0.08581
   C        4.02625         3.72934        -0.86691
   O        2.68521         3.30340        -0.75964
   C        2.16130         2.59147        -1.85181
   C        2.86993         1.25925        -2.15823
   H        0.55521        -1.31807        -0.15134
   H        0.64884        -0.17024        -1.49218
   H        0.29776         0.39778         0.13969
   H        2.70374        -0.63245         0.73869
   H        5.56238         1.68222        -1.83107
   H        6.35789         1.18611        -0.33004
   H        5.92673         3.43845         0.06347
   H        4.58232         2.63520         0.89052
   H        4.32903         3.80825        -1.91966
   H        4.04983         4.73533        -0.43061
   H        2.16925         3.22145        -2.75653
   H        1.12511         2.39978        -1.56672
   H        3.77099         1.44011        -2.74486
   H        2.20074         0.65305        -2.77109
*
