20
 SCF done        -36.615693000840          0.000619254506
C          -0.06382520362831    1.35613680628385    0.66235176029298
S          -0.98843196096743    0.01682141967874    1.17149536015530
C           0.02728783018796   -1.09114556888692    0.29646987823433
C           1.03513127912962   -0.40898384088741   -0.34651626734587
C           0.98372972019414    1.00249165383694   -0.14196284412759
C           1.91573305034959    2.00568546307659   -0.71946727204975
O           1.91181307084191    3.15995570143420   -0.38485038170968
O           2.76158559233665    1.54156259879382   -1.64479264666251
O           2.00349761333527   -1.01344387424998   -1.12600874631531
C           3.04219570909595   -1.64904452426003   -0.39230937201492
C          -0.22336199947991   -2.50898119830103    0.25984288664639
C          -1.14820767118256   -3.13183829922031    0.98246938641765
H          -0.32409544966819    2.35026509029294    0.96632387457509
H           2.63552540274513    0.58255372886089   -1.79225113580012
H           3.70125052203471   -2.09557065979772   -1.13370452190148
H           2.64631413285673   -2.42495575350574    0.26668800074123
H           3.59943856632372   -0.92139924892607    0.20590671207338
H           0.39896317297534   -3.05980466298063   -0.43317054432445
H          -1.77900955771347   -2.59357567929313    1.67041160698623
H          -1.30327381976687   -4.19301915194848    0.90623426612893
