# ORCA input file
# SCF done        -36.615693000840          0.000619254506
! B3LYP/G D3BJ Opt RIJCOSX def2-SVP def2/J
* xyz 0 1
   C       -0.06383         1.35614         0.66235
   S       -0.98843         0.01682         1.17150
   C        0.02729        -1.09115         0.29647
   C        1.03513        -0.40898        -0.34652
   C        0.98373         1.00249        -0.14196
   C        1.91573         2.00569        -0.71947
   O        1.91181         3.15996        -0.38485
   O        2.76159         1.54156        -1.64479
   O        2.00350        -1.01344        -1.12601
   C        3.04220        -1.64904        -0.39231
   C       -0.22336        -2.50898         0.25984
   C       -1.14821        -3.13184         0.98247
   H       -0.32410         2.35027         0.96632
   H        2.63553         0.58255        -1.79225
   H        3.70125        -2.09557        -1.13370
   H        2.64631        -2.42496         0.26669
   H        3.59944        -0.92140         0.20591
   H        0.39896        -3.05980        -0.43317
   H       -1.77901        -2.59358         1.67041
   H       -1.30327        -4.19302         0.90623
*
