# ORCA input file
# SCF done        -34.820929883899          0.000921381615
! B3LYP/G D3BJ Opt RIJCOSX def2-SVP def2/J
* xyz 0 1
   C        1.43688        -1.25726         0.19190
   S        2.66584        -0.07150         0.33457
   C        1.49326         1.21732         0.23687
   C        0.21990         0.71097         0.11575
   C        0.19523        -0.70943         0.08728
   C       -1.07100        -1.50465        -0.01489
   C       -2.24086        -0.62552        -0.45400
   C       -2.27811         0.67785         0.35541
   O       -2.40814         0.44695         1.73834
   C       -1.03615         1.52280         0.03689
   C        1.99970         2.56484         0.29949
   C        1.36892         3.68666        -0.03669
   H        1.70005        -2.29655         0.19229
   H       -1.29569        -1.95400         0.95869
   H       -0.93571        -2.32830        -0.71939
   H       -3.17726        -1.16783        -0.31678
   H       -2.14188        -0.37101        -1.51030
   H       -3.17562         1.24619         0.08663
   H       -1.59279         0.03841         2.05121
   H       -0.98606         2.35568         0.74251
   H       -1.14201         1.93748        -0.96966
   H        3.02598         2.62629         0.64190
   H        0.36713         3.70701        -0.42469
   H        1.86311         4.63859         0.05432
*
