# ORCA input file
# SCF done        -21.150436223552          0.000679144940
! B3LYP/G D3BJ Opt RIJCOSX def2-SVP def2/J
* xyz 0 1
   C        1.19457         0.26946         0.01455
   C        0.65716        -0.96541        -0.00246
   C       -0.77052        -0.83295        -0.00207
   C       -1.10964         0.48842         0.01553
   C        0.12170         1.32277         0.02709
   C       -2.53733         0.62084         0.01510
   C       -3.07471        -0.61398        -0.00284
   C       -2.00184        -1.66727        -0.01640
   H        2.24124         0.51575         0.01876
   H        1.19512        -1.89695        -0.01484
   H        0.19203         1.95553         0.91432
   H        0.19273         1.97648        -0.84491
   H       -3.07530         1.55238         0.02670
   H       -4.12138        -0.86025        -0.00794
   H       -2.07066        -2.29698        -0.90607
   H       -2.07438        -2.32400         0.85306
*
