# ORCA input file
# SCF done        -16.732091192188          0.000315810533
! B3LYP/G D3BJ Opt RIJCOSX def2-SVP def2/J
* xyz 0 1
   C        1.43914        -0.74477        -0.01991
   C        1.44693         0.73424        -0.02133
   C        0.19431         1.18792         0.01759
   C       -0.72595         0.00622         0.04522
   O       -1.92916         0.01259         0.07921
   C        0.18182        -1.18515         0.01992
   H        2.33914        -1.33287        -0.04714
   H        2.35307         1.31278        -0.04970
   H       -0.15541         2.20201         0.02829
   H       -0.17856        -2.19548         0.03263
*
