17
 SCF done        -31.525859406177          0.000533809066
C           1.53078854508175    1.22322431184523   -0.24544260736345
S           2.68823487913857   -0.00923449115392   -0.57024403470397
C           1.51866329879794   -1.23968056970613   -0.28336797461028
C           0.31172747992450   -0.71936788498105    0.05287190826852
C           0.32012435089285    0.70324623104775    0.07645909115763
C          -0.94622367718092    1.43022398554190    0.39644043752475
C          -2.07516441238587    0.77648301344271   -0.36896735556251
O          -2.87185277750107    1.38211991147781   -1.03233825241141
C          -2.14914240904966   -0.76178738468018   -0.25996981816852
O          -3.12302633174112   -1.35297295097998   -0.64099835468569
C          -0.95331523802905   -1.44740028339278    0.36536012156867
H           1.81984978445392    2.25271517127513   -0.31204348513928
H           1.79880793369812   -2.26918491317155   -0.38163042559663
H          -0.88833139201754    2.48900952615627    0.14350008743649
H          -1.16571926335544    1.33698866208722    1.46592808784026
H          -0.92013731892854   -2.49020351566151    0.04674130343571
H          -1.12414345179840   -1.43759881914694    1.44939127100964
