21
 SCF done        -31.604379967108          0.000800664875
C           0.12474951819984    1.28496228734977    0.45391812957719
S          -0.99678191132472   -0.00807306971543    0.48373799741272
C           0.19965859224704   -1.13853098175105   -0.07897136755737
C           1.40093434961111   -0.49835794496086   -0.27587215938332
C           1.36612731490731    0.89926822355539    0.03175405468319
C           2.52741085336966    1.75406797128740   -0.13529176530754
C           2.66824017115349    2.97232618359298    0.37226053661593
O           2.54199115335504   -1.12762234429349   -0.71398666492803
C           3.42434875364474   -1.49654824386682    0.32921420438824
C          -0.17472626316845   -2.51787210223297   -0.27104057216821
C           0.56511778309155   -3.43507854800086   -0.88715339932902
H          -0.20509589408980    2.26751343358396    0.72488204620950
H           3.32011616075174    1.31456017714185   -0.72780236063958
H           1.90618146803802    3.43202864574589    0.97807494631936
H           3.55897259817455    3.55200938316455    0.20274283262413
H           4.30761864934426   -1.91222198223818   -0.15241758570752
H           2.96919658001827   -2.25423062778787    0.97726798795587
H           3.70964027599089   -0.63141564397378    0.93771470665952
H          -1.14882405052137   -2.77765964939032    0.12432954203844
H           1.52413714039122   -3.19677306842221   -1.31133171478033
H           0.22079675681530   -4.44947209878751   -0.99032939468314
