# ORCA input file
# SCF done        -28.787512330036          0.000359053442
! B3LYP/G D3BJ Opt RIJCOSX def2-SVP def2/J
* xyz 0 1
   C        1.31738        -1.21567        -0.13241
   S        1.82412         0.41082        -0.10975
   C        0.20506         0.96466         0.02393
   C       -0.69750        -0.06170         0.05193
   C       -0.04228        -1.32835        -0.03962
   N       -0.72262        -2.58412        -0.03430
   O       -0.03474        -3.57918        -0.12383
   O       -1.92892        -2.56703         0.05842
   C       -2.09103         0.13953         0.15749
   N       -3.20812         0.37285         0.24528
   H        2.01833        -2.02377        -0.21037
   H       -0.00703         2.01438         0.07626
*
