20
 SCF done        -37.104085060541          0.000353144957
C          -0.87539101804588    0.54574976320775    0.75440447595209
S          -1.04597845961824   -0.96998947248513    1.57355283336956
C          -0.06364505963437   -1.72486937918302    0.39879069231794
C           0.37095099077901   -0.83503450247054   -0.57688271773973
C          -0.10082962209745    0.47153651852924   -0.36465705586876
C           1.21521422212711   -1.55777868516026   -1.56468971403520
O           1.76768534074900   -1.11859486226049   -2.54306942776961
C           1.21723772787784   -2.95933687834420   -1.05544278247690
C           0.45425572235767   -3.02725600825323    0.10716738273931
S           0.40209090677092   -4.60323568367110    0.75401484196346
C           1.41458638925235   -5.19834779472627   -0.54846099188394
C           1.76106803730933   -4.19124727279528   -1.42505620936411
C           1.75524762665225   -6.59384449607276   -0.56854726145081
C           2.48833862613803   -7.19265709065264   -1.50542794420000
H          -1.36837824352271    1.40540783488988    1.16247622537443
H           0.11730332565213    1.30876139296086   -1.00153878802099
H           2.37826826349875   -4.34187250691221   -2.29075450634433
H           1.36438683177184   -7.17178010037011    0.25891797274980
H           2.89460279134623   -6.65766791411059   -2.34563170824927
H           2.70285560063616   -8.24518286211989   -1.45608531706296
