# ORCA input file
# SCF done        -42.304612345617          0.000598461533
! B3LYP/G D3BJ Opt RIJCOSX def2-SVP def2/J
* xyz 0 1
   C       -1.73465         1.09742         0.62973
   S       -2.92415        -0.14429         0.76238
   C       -0.49257         0.55828         0.60606
   C        0.91536         1.03940         0.44795
   N        1.13778         1.47802        -0.91257
   C        2.46798         2.01854        -1.13613
   C        2.62530         2.44150        -2.58786
   O        1.70889        -0.10249         0.72621
   C        0.95830        -1.30734         0.64087
   O        1.35900        -2.16837         1.65242
   C       -0.47748        -0.85182         0.69084
   C       -1.71921        -1.41540         0.78262
   C       -2.15029        -2.78581         0.87484
   C       -1.33465        -3.82890         0.99813
   H       -2.03942         2.12329         0.58258
   H        1.20697         1.81100         1.19185
   H        0.42991         2.15916        -1.16994
   H        3.17495         1.22204        -0.89321
   H        2.67730         2.87368        -0.46808
   H        2.41353         1.60143        -3.24321
   H        3.64004         2.78539        -2.76923
   H        1.93635         3.24936        -2.82762
   H        1.17741        -1.83486        -0.30111
   H        1.39731        -1.67339         2.48059
   H       -3.22279        -2.92534         0.83954
   H       -0.26711        -3.71083         1.05773
   H       -1.72122        -4.83146         1.05504
*
