27
 SCF done        -42.304612345617          0.000598461533
C          -1.73465145763857    1.09742025038379    0.62972731007329
S          -2.92415390252398   -0.14428700598401    0.76238483153953
C          -0.49257459940957    0.55828396535576    0.60605568297976
C           0.91536483898008    1.03940023104282    0.44794986673842
N           1.13778065377567    1.47801804639777   -0.91257435463533
C           2.46797714030754    2.01854293183243   -1.13612789612369
C           2.62529785518748    2.44149521150472   -2.58785658748953
O           1.70889363691574   -0.10248832059035    0.72621180009862
C           0.95829726988614   -1.30734126108190    0.64086938804379
O           1.35899844401249   -2.16837176370327    1.65242088167305
C          -0.47747729224091   -0.85181679293438    0.69083936336462
C          -1.71921064288444   -1.41539697965869    0.78262179453979
C          -2.15029321788743   -2.78581199599430    0.87484239604690
C          -1.33464880798194   -3.82890123040975    0.99812974912369
H          -2.03941572600221    2.12329077981159    0.58257541157583
H           1.20696556030385    1.81100027459216    1.19184937739967
H           0.42990632022157    2.15916310528445   -1.16994485131709
H           3.17495034189975    1.22203647070124   -0.89321491380569
H           2.67729737312685    2.87368368811939   -0.46808427872556
H           2.41353213603974    1.60143081012788   -3.24321295193274
H           3.64004073986280    2.78539223300510   -2.76923429997255
H           1.93635183956047    3.24935910190590   -2.82761873000225
H           1.17741246113345   -1.83485874808378   -0.30110506068717
H           1.39730690553507   -1.67338746725598    2.48059005468481
H          -3.22279142829625   -2.92533535885024    0.83953521633637
H          -0.26710674230229   -3.71083082448566    1.05773101374869
H          -1.72121969958106   -4.83145935103267    1.05503978672475
