# ORCA input file
# SCF done        -35.419928567039          0.000991474113
! B3LYP/G D3BJ Opt RIJCOSX def2-SVP def2/J
* xyz 0 1
   C        2.50102         0.92571         0.01663
   C        3.12587        -0.27996        -0.02369
   S        2.05041        -1.64183        -0.06978
   C        0.69422        -0.57526        -0.03554
   C        1.09935         0.76849         0.01077
   N       -0.00030         1.58559         0.05369
   C        0.00396         3.02356         0.02028
   C        0.00653         3.55689        -1.41182
   C       -1.10456         0.77508         0.00446
   C       -0.70725        -0.57108        -0.03956
   S       -2.06959        -1.62946        -0.08170
   C       -3.13712        -0.26118        -0.04177
   C       -2.50527         0.94072         0.00231
   H        3.02059         1.86645         0.04647
   H        4.18097        -0.46884        -0.03058
   H        0.89211         3.37584         0.55237
   H       -0.88283         3.38119         0.55113
   H        0.88826         3.20542        -1.94246
   H        0.01013         4.64360        -1.40592
   H       -0.87688         3.21127        -1.94351
   H       -4.19328        -0.44373        -0.05488
   H       -3.01931         1.88459         0.02923
*
