22
 SCF done        -35.419928567039          0.000991474113
C           2.50101616984825    0.92570523924532    0.01662550787696
C           3.12587321187152   -0.27996453616363   -0.02368726781755
S           2.05040631404493   -1.64183156356673   -0.06977606937486
C           0.69422100646754   -0.57526098505488   -0.03553610268835
C           1.09934502359822    0.76848734781474    0.01076763518458
N          -0.00030188478256    1.58559362277585    0.05369288777671
C           0.00395753707783    3.02356152487851    0.02028050994174
C           0.00652597406557    3.55689290298409   -1.41182385372288
C          -1.10456130668011    0.77507773948198    0.00445992411702
C          -0.70725243308916   -0.57108282012911   -0.03956216752293
S          -2.06958965953544   -1.62946087716754   -0.08170428525731
C          -3.13712116421399   -0.26118108821809   -0.04177378480774
C          -2.50526859033484    0.94072426407352    0.00230898256870
H           3.02058891535172    1.86645082106338    0.04647162827081
H           4.18096761270516   -0.46883980198403   -0.03057519733888
H           0.89210867784404    3.37584072925300    0.55236875905190
H          -0.88283286584646    3.38118574019596    0.55112828263014
H           0.88825800040679    3.20541911203960   -1.94246137026308
H           0.01013032986985    4.64359790774900   -1.40592220353448
H          -0.87688185730851    3.21127453929700   -1.94351258167740
H          -4.19327803079985   -0.44373129216654   -0.05487836978653
H          -3.01931098056048    1.88459147359858    0.02922913637344
