# ORCA input file
# SCF done        -15.181947271113          0.000232888839
! B3LYP/G D3BJ Opt RIJCOSX def2-SVP def2/J
* xyz 0 1
   C       -0.28241        -1.04337        -0.01039
   O       -1.13536        -0.00524        -0.00910
   C       -0.29744         1.04504        -0.00187
   N        0.93855         0.68326         0.00108
   N        0.94824        -0.66388        -0.00442
   H       -0.65282        -2.04687        -0.01579
   H       -0.68224         2.04312         0.00090
*
