7
 SCF done        -15.181947271113          0.000232888839
C          -0.28241196175718   -1.04336728393671   -0.01038979427010
O          -1.13535964437045   -0.00523500313343   -0.00910419653952
C          -0.29743910239673    1.04503927402509   -0.00186769233232
N           0.93854888421216    0.68326393820461    0.00108027830763
N           0.94824199964379   -0.66388000058521   -0.00442025002579
H          -0.65281612342873   -2.04686808364638   -0.01579466567053
H          -0.68224405190286    2.04311715907204    0.00089632053063
