28
 SCF done        -36.991091507373          0.000471124000
N          -2.53785915230379    1.05719516100743    0.28069020380881
C          -3.35406884188496   -0.12817281372724    0.15113814757236
N          -2.41724380143327   -1.23303373821466    0.31582464755189
C          -1.22724724090642   -0.84233070534304   -0.43042426024127
C           0.03963526018792   -1.38388890369305    0.22892346955617
C           1.26861197239402   -0.74807280052112   -0.40592185240269
C           1.20577852573434    0.82360132018794   -0.38918798173516
C          -0.07260605319651    1.34489583333348    0.25305522995112
C          -1.29252871047004    0.71633648951816   -0.40829526312922
N           2.41363054433489    1.25495277629355    0.30835737877112
C           3.31319168077732    0.11636106590711    0.18446611645094
N           2.51265646281489   -1.09714573179545    0.27356838748390
H          -2.33953151227984    1.21218606519123    1.26529386868214
H          -3.82301507432410   -0.11234440290395   -0.84960872224067
H          -4.13629469698789   -0.16686871280461    0.91108698722871
H          -2.79510747756670   -2.12313224347078    0.01676723154811
H          -1.25583426413388   -1.18948471003814   -1.47664277904553
H           0.08392935963714   -2.46799749530191    0.11279096200828
H           0.00217984881562   -1.16956463616325    1.29894185193027
H           1.35488767433604   -1.09044991746027   -1.44444493153299
H           1.27115286381464    1.19598688896016   -1.41833270830393
H          -0.12087352111355    2.43043301197767    0.15558590611341
H          -0.07468077961766    1.10532306698295    1.32049627792677
H          -1.37308178243102    1.08796141852314   -1.43727767078674
H           2.20007775537006    1.41870367418379    1.28948950920369
H           4.10747520206563    0.13901702973255    0.92915718456683
H           3.75521462237231    0.15077043183689   -0.81858174823127
H           2.31843113599491   -1.31249742219874    1.24898455729487
