17
 SCF done        -33.950662051625          0.000755818563
C          -1.19324233852520    1.32173851547573   -0.01013294365946
C           0.02752645276465    0.73742036338533   -0.01064170570336
C          -0.00489363108120   -0.70279735206629   -0.00286643925751
C          -1.31443277460451   -1.28030653562333    0.00398140789215
O          -1.70882838773436   -2.40737303609861    0.01130577016510
S          -2.48132221536972    0.17444943093776    0.00029675541891
C           1.28793224877604   -1.14357290308033   -0.00430644943680
N           2.14734392048957   -0.08727903947861   -0.01272174609435
C           1.42563825050588    1.14843028530665   -0.01698296470685
O           1.92833885930656    2.24323265473069   -0.02442595847527
C           3.53312186894393   -0.23992636288736   -0.01633883250778
C           4.42097689737657    0.74255903591740   -0.02457106364760
H          -1.42138392988630    2.37104060371935   -0.01493923091023
H           1.65391971169809   -2.15488085395024   -0.00006962938531
H           3.83553524362516   -1.27985607862344   -0.01124410595195
H           4.13315576211214    1.77737623858185   -0.02879936255476
H           5.47179406160269    0.51698503375344   -0.02587350118494
