13
 SCF done        -32.523076429074          0.000664125083
C          -1.46886335045737   -1.26675334022874    0.12055723188750
S          -2.74697359649918   -0.13367929283282    0.20929149591318
C          -1.65604582981779    1.18603745221583    0.16649410489492
C          -0.36069829860771    0.76723783331588    0.08764306585858
C          -0.25305462466861   -0.64734292795430    0.06238911928676
O           0.90391546705784   -1.36290367732644   -0.00642775116246
C           2.13269389157698   -0.83605648632978   -0.09032740654375
O           3.07974893574992   -1.56683553733996   -0.14580421989313
C           2.37674902583160    0.67515054340282   -0.11443066394706
O           3.49144437271362    1.10221429548524   -0.21305541590431
S           1.03614708650659    1.83123437910255    0.01652907065415
H          -1.65770935623577   -2.32015370374081    0.11588813747196
H          -2.01308372315004    2.19436046223053    0.19947323148361
