# ORCA input file
# SCF done        -48.890394195723          0.000610206393
! B3LYP/G D3BJ Opt RIJCOSX def2-SVP def2/J
* xyz 0 1
   N       -3.27677        -0.11407         0.35049
   N       -2.65464         1.07846        -0.09525
   C       -1.32475         0.72684        -0.62224
   C       -0.18857         1.44357         0.11433
   C       -0.21863         1.23760         1.63165
   C        1.14148         1.02930        -0.54830
   C        1.21987        -0.49887        -0.90129
   N        2.52496        -0.99298        -0.49270
   S        2.94212        -0.09538         0.90508
   N        2.27455         1.37375         0.30013
   C        0.15319        -1.36432        -0.21398
   C        0.29525        -2.79231        -0.74507
   C       -1.24939        -0.81377        -0.47079
   N       -2.20507        -1.00494         0.61866
   C       -2.50952        -2.21428         1.19926
   C       -3.69345        -2.54127         1.70419
   H       -3.83404        -0.47581        -0.43974
   H       -2.55490         1.68443         0.71533
   H       -1.29067         1.00673        -1.68391
   H       -0.29952         2.51880        -0.07011
   H       -0.52141         0.23245         1.90465
   H       -0.91460         1.93490         2.09370
   H        0.76751         1.43604         2.04016
   H        1.22392         1.59491        -1.48529
   H        1.11877        -0.62513        -1.98490
   H        3.22786        -0.88536        -1.21862
   H        2.97912         1.90935        -0.19563
   H        0.36505        -1.36453         0.85721
   H        0.13837        -2.81270        -1.82261
   H       -0.42459        -3.46296        -0.28584
   H        1.29665        -3.15808        -0.53549
   H       -1.64338        -1.27241        -1.39880
   H       -1.65912        -2.87317         1.28723
   H       -4.53490        -1.87585         1.64634
   H       -3.82981        -3.47248         2.22115
*
