35
 SCF done        -48.890394195723          0.000610206393
N          -3.27676900440096   -0.11407146328812    0.35048916634604
N          -2.65464125479527    1.07845903452181   -0.09524960245208
C          -1.32474571533867    0.72683830434977   -0.62223708758909
C          -0.18856972473918    1.44357036531301    0.11433077534969
C          -0.21863454372380    1.23759606073504    1.63165142316033
C           1.14148391996083    1.02929546863271   -0.54829926893846
C           1.21987143905668   -0.49887279269025   -0.90128509270038
N           2.52496209701690   -0.99298048172856   -0.49270442925297
S           2.94211879577009   -0.09537651247973    0.90508397825288
N           2.27455369550832    1.37375419255507    0.30012961677323
C           0.15319083720032   -1.36431646888959   -0.21398207050295
C           0.29524893638663   -2.79230952296708   -0.74507379527090
C          -1.24938991397791   -0.81376729731776   -0.47078623799513
N          -2.20507014909862   -1.00493509893611    0.61866089113998
C          -2.50951991775487   -2.21427693827615    1.19925907476979
C          -3.69344759727554   -2.54126684292906    1.70418507150250
H          -3.83404389000511   -0.47581162756527   -0.43974417947084
H          -2.55489795137033    1.68443149453144    0.71532979661199
H          -1.29066972671032    1.00673073645470   -1.68390684357842
H          -0.29951506299968    2.51879839497302   -0.07011223017359
H          -0.52141203966152    0.23244652477458    1.90465342057621
H          -0.91460235363311    1.93490313997989    2.09369558152953
H           0.76750953124910    1.43604193170754    2.04016129360343
H           1.22391717632700    1.59490952469973   -1.48528851060249
H           1.11877088736702   -0.62513060132521   -1.98489640456411
H           3.22785835420579   -0.88536044316841   -1.21862079722163
H           2.97912482421807    1.90934646275119   -0.19562927085137
H           0.36504622740406   -1.36452790591540    0.85721122565362
H           0.13836943439986   -2.81270287104516   -1.82260924285102
H          -0.42458910985341   -3.46296005699480   -0.28584402127564
H           1.29665352379861   -3.15807812573979   -0.53549145734272
H          -1.64337544501488   -1.27241203372407   -1.39879914903251
H          -1.65911702075646   -2.87317234381416    1.28722522616616
H          -4.53489619786168   -1.87584999424656    1.64633624725335
H          -3.82981306089788   -3.47248221293822    2.22114690297775
