# ORCA input file
# SCF done        -36.008721303234          0.000802659443
! B3LYP/G D3BJ Opt RIJCOSX def2-SVP def2/J
* xyz 0 1
   C       -1.49620         1.26926        -0.07112
   S       -2.66328         0.02965        -0.09635
   C       -1.46843        -1.22513        -0.00697
   C       -0.18980        -0.67409         0.00741
   C       -0.21662         0.76368        -0.01860
   C        0.99332         1.49452         0.00354
   C        2.17954         0.82540         0.02345
   S        3.73750         1.68527         0.05703
   C        2.22166        -0.60243        -0.00231
   O        3.40200        -1.27120        -0.02485
   C        1.06148        -1.32649        -0.01092
   C       -1.93608        -2.58281         0.05627
   C       -1.27792        -3.63420         0.54162
   H       -1.80111         2.29627        -0.09180
   H        0.95475         2.57409        -0.00152
   H        3.21464         2.90543         0.07129
   H        4.14235        -0.65128        -0.01835
   H        1.13094        -2.39888        -0.06033
   H       -2.95072        -2.71727        -0.29877
   H       -0.29390        -3.55883         0.96626
   H       -1.72946        -4.61094         0.54761
*
