21
 SCF done        -36.008721303234          0.000802659443
C          -1.49619559281528    1.26925621698027   -0.07111781436912
S          -2.66327532757459    0.02965033628994   -0.09635196001007
C          -1.46843201085541   -1.22513253669429   -0.00696714645548
C          -0.18980377576559   -0.67408665558200    0.00740910028816
C          -0.21661678599424    0.76368254366107   -0.01860296720430
C           0.99332195124988    1.49452147401207    0.00353705286396
C           2.17954022440660    0.82539787861237    0.02344668872050
S           3.73749760769096    1.68527288842848    0.05703133604471
C           2.22166159600986   -0.60242979073900   -0.00230985823644
O           3.40199922608962   -1.27120446060319   -0.02484770206256
C           1.06147536521627   -1.32649253956878   -0.01092224538704
C          -1.93607617376765   -2.58281455685374    0.05627271098520
C          -1.27791501603018   -3.63419567133443    0.54162064403383
H          -1.80111192040994    2.29627255495155   -0.09179949590270
H           0.95474967572927    2.57408963040991   -0.00152040371909
H           3.21463863898167    2.90542961660871    0.07128521431256
H           4.14235059247274   -0.65128060121221   -0.01835163706258
H           1.13093960114866   -2.39888177545453   -0.06032977914525
H          -2.95072341150567   -2.71726812636889   -0.29876793648605
H          -0.29390491210075   -3.55883423350639    0.96625640886666
H          -1.72945955217610   -4.61094219203689    0.54760978992504
