15
 SCF done        -23.364041315858          0.000364554051
C          -0.38871395575018    0.82646630567382    0.07144949750321
O          -1.07342885122431   -0.33011089446782   -0.07778316091087
C          -0.16908107377239   -1.31426357879495   -0.13344401200694
C           1.09617047102770   -0.82791841816296   -0.02498091581776
C           0.96028743366641    0.58473896036373    0.11102078908844
N           1.95018938250370    1.52766761974323    0.25284460082861
C           3.30010756804307    1.28522540908238    0.29214517721692
C           4.22209739121602    2.23186604492924    0.43150543235574
H          -0.95429344582300    1.73348320343884    0.13596860966395
H          -0.53477900673805   -2.31509860003247   -0.25137114755734
H           2.00059291745716   -1.39923560274772   -0.03986207117679
H           1.65313640258255    2.48816338758470    0.33595059330774
H           3.57320173014338    0.24531332536740    0.19967536896475
H           3.95827187801015    3.27160368109758    0.52409656347623
H           5.26691115865779    1.99002915692499    0.45626467506411
