# ORCA input file
# SCF done        -23.364041315858          0.000364554051
! B3LYP/G D3BJ Opt RIJCOSX def2-SVP def2/J
* xyz 0 1
   C       -0.38871         0.82647         0.07145
   O       -1.07343        -0.33011        -0.07778
   C       -0.16908        -1.31426        -0.13344
   C        1.09617        -0.82792        -0.02498
   C        0.96029         0.58474         0.11102
   N        1.95019         1.52767         0.25284
   C        3.30011         1.28523         0.29215
   C        4.22210         2.23187         0.43151
   H       -0.95429         1.73348         0.13597
   H       -0.53478        -2.31510        -0.25137
   H        2.00059        -1.39924        -0.03986
   H        1.65314         2.48816         0.33595
   H        3.57320         0.24531         0.19968
   H        3.95827         3.27160         0.52410
   H        5.26691         1.99003         0.45626
*
