# ORCA input file
# SCF done        -35.021648783640          0.000721726035
! B3LYP/G D3BJ Opt RIJCOSX def2-SVP def2/J
* xyz 0 1
   C        1.36648         1.27466        -0.05903
   S        2.58912         0.05409        -0.06145
   C        0.13398         0.71218        -0.02099
   C       -1.27773         1.13855         0.00337
   O       -1.76103         2.24064        -0.00657
   N       -2.00251        -0.04874         0.05364
   C       -3.45005        -0.08183         0.06028
   C       -4.00855        -0.12674        -1.35761
   C       -1.22404        -1.20265         0.05326
   O       -1.65634        -2.32514         0.09071
   C        0.16667        -0.71347         0.00938
   C        1.42368        -1.22000        -0.00590
   H        1.64150         2.30994        -0.08704
   H       -3.79477         0.81725         0.57656
   H       -3.75381        -0.97151         0.61700
   H       -3.69496         0.75428        -1.91307
   H       -5.09410        -0.15115        -1.32446
   H       -3.65393        -1.01645        -1.87310
   H        1.74587        -2.24184         0.00988
*
