19
 SCF done        -35.021648783640          0.000721726035
C           1.36647809470569    1.27466237916129   -0.05902515885811
S           2.58911629935376    0.05409353189042   -0.06144905735038
C           0.13398365844415    0.71218051664206   -0.02098613490938
C          -1.27772879551610    1.13855338661299    0.00337437293064
O          -1.76103299022948    2.24064037772041   -0.00656964477409
N          -2.00250615068995   -0.04874171278069    0.05363659039411
C          -3.45004935700699   -0.08182950359506    0.06027934656582
C          -4.00855060285163   -0.12673614917448   -1.35761066177950
C          -1.22404358660274   -1.20264688761120    0.05325501571073
O          -1.65634191291710   -2.32514012267828    0.09071458328361
C           0.16667471962726   -0.71347008951873    0.00937846416597
C           1.42368268307535   -1.22000066130946   -0.00589910426140
H           1.64150176192285    2.30993936406432   -0.08704360444452
H          -3.79476726895441    0.81725419811537    0.57656025755490
H          -3.75381067741566   -0.97151074217455    0.61699878367535
H          -3.69495581736820    0.75428042336882   -1.91307084749499
H          -5.09410434125626   -0.15114740780954   -1.32446122070492
H          -3.65392915569705   -1.01644606133244   -1.87309592202805
H           1.74587343937651   -2.24184483959126    0.00988394232421
