21
 SCF done        -34.384801329502          0.000521084800
C          -0.42061821170814    0.88561737022101    0.75179653042956
O          -1.22104729447039   -0.19533683812959    0.81158842932691
C          -0.53339916089872   -1.24452802428198    0.29626158247430
C           0.72454797435510   -0.82848795417657   -0.09832786863519
C           0.79098988881598    0.56599718879587    0.20322521876567
O           1.86806680038543    1.37099626780507   -0.02877934273304
C           1.71158584970823    2.71465681005649    0.35781319046349
O           1.64096109484366   -1.66327011940606   -0.64857600437789
C           2.86606549534342   -1.09380983299536   -1.05605501398362
C          -1.11618972015835   -2.55582874030964    0.21701490418152
C          -2.34729624883626   -2.86076447772793    0.61856373181215
H          -0.82140471067112    1.80574987318770    1.12553024484954
H           2.64666940714305    3.21040831152139    0.10401204087722
H           1.53104508867792    2.79859310332528    1.43420742836054
H           0.88578638552912    3.18879586206525   -0.18139846408469
H           3.44465611837782   -1.91465946730944   -1.47696330952000
H           3.40528020158661   -0.65799805586393   -0.21121202606587
H           2.71441072506536   -0.32274112067545   -1.81573802573286
H          -0.45649713037407   -3.29784789314132   -0.20897766439165
H          -2.99712089432101   -2.11341400173603    1.04072190673580
H          -2.73597165839358   -3.86004826122472    0.53707251124802
