# ORCA input file
# SCF done        -34.384801329502          0.000521084800
! B3LYP/G D3BJ Opt RIJCOSX def2-SVP def2/J
* xyz 0 1
   C       -0.42062         0.88562         0.75180
   O       -1.22105        -0.19534         0.81159
   C       -0.53340        -1.24453         0.29626
   C        0.72455        -0.82849        -0.09833
   C        0.79099         0.56600         0.20323
   O        1.86807         1.37100        -0.02878
   C        1.71159         2.71466         0.35781
   O        1.64096        -1.66327        -0.64858
   C        2.86607        -1.09381        -1.05606
   C       -1.11619        -2.55583         0.21701
   C       -2.34730        -2.86076         0.61856
   H       -0.82140         1.80575         1.12553
   H        2.64667         3.21041         0.10401
   H        1.53105         2.79859         1.43421
   H        0.88579         3.18880        -0.18140
   H        3.44466        -1.91466        -1.47696
   H        3.40528        -0.65800        -0.21121
   H        2.71441        -0.32274        -1.81574
   H       -0.45650        -3.29785        -0.20898
   H       -2.99712        -2.11341         1.04072
   H       -2.73597        -3.86005         0.53707
*
