26
 SCF done        -46.611463701295          0.000596766969
C           1.60299953138751   -1.21775462108955   -0.22049426740380
S           2.74978735832771    0.04887544363645   -0.26489263328501
C           1.50489511629405    1.24843247036944   -0.03389910032324
C           0.26520776319854    0.66009156217889    0.04559127519667
C           0.33171825527018   -0.75424355759848   -0.05758323453624
C          -0.88246557312031   -1.64187918404803   -0.01137261886687
C          -1.07098978650333   -2.30446528544215   -1.37586826697324
F          -0.08551663344324   -3.17844726792088   -1.64281646817493
F          -2.21385429779420   -3.00941631440589   -1.44749280125965
F          -1.09466868723009   -1.44511554437964   -2.40209236377783
C          -2.13348005532476   -0.86466544353875    0.41479645537814
C          -2.20069035766870    0.50151277936158   -0.26051926334569
C          -1.03814905442576    1.37661498520402    0.20238243584739
C           1.92078655126911    2.62766040976768    0.02898374207171
C           1.24316304030724    3.64841441874926    0.54654140622285
H           1.92811934428540   -2.23404542439724   -0.32199133117027
H          -0.71021195530166   -2.47558776382514    0.68078869783027
H          -2.09552858859200   -0.72650058517574    1.49744926312218
H          -3.02408242563626   -1.45080841022696    0.18210714410366
H          -3.14463637595581    0.98580049865638   -0.00582668204310
H          -2.16569237800546    0.38773879026709   -1.34413262829735
H          -1.18025517101671    1.63543217323959    1.25713259512039
H          -1.01683758781263    2.30546310405550   -0.37087217598460
H           2.90971345834041    2.80562085902647   -0.37482186660823
H           0.27937854542620    3.53967758042554    1.00836079440977
H           1.65842996372459    4.64132432711048    0.53954189274697
