# ORCA input file
# SCF done        -46.611463701295          0.000596766969
! B3LYP/G D3BJ Opt RIJCOSX def2-SVP def2/J
* xyz 0 1
   C        1.60300        -1.21775        -0.22049
   S        2.74979         0.04888        -0.26489
   C        1.50490         1.24843        -0.03390
   C        0.26521         0.66009         0.04559
   C        0.33172        -0.75424        -0.05758
   C       -0.88247        -1.64188        -0.01137
   C       -1.07099        -2.30447        -1.37587
   F       -0.08552        -3.17845        -1.64282
   F       -2.21385        -3.00942        -1.44749
   F       -1.09467        -1.44512        -2.40209
   C       -2.13348        -0.86467         0.41480
   C       -2.20069         0.50151        -0.26052
   C       -1.03815         1.37661         0.20238
   C        1.92079         2.62766         0.02898
   C        1.24316         3.64841         0.54654
   H        1.92812        -2.23405        -0.32199
   H       -0.71021        -2.47559         0.68079
   H       -2.09553        -0.72650         1.49745
   H       -3.02408        -1.45081         0.18211
   H       -3.14464         0.98580        -0.00583
   H       -2.16569         0.38774        -1.34413
   H       -1.18026         1.63543         1.25713
   H       -1.01684         2.30546        -0.37087
   H        2.90971         2.80562        -0.37482
   H        0.27938         3.53968         1.00836
   H        1.65843         4.64132         0.53954
*
