16
 SCF done        -23.097759764116          0.000750637362
C           0.08917904108438   -0.94717313990967   -0.32845051199772
O           1.33127728088491   -0.43773049735401   -0.29328116492536
C           1.22201234628385    0.87020966281374    0.04387289464989
C          -0.10274998643964    1.18566892270961    0.22294765226720
C          -0.84222684050699    0.00225463779954   -0.01984384839956
C          -2.32028036342293   -0.15767133672044    0.05385892963980
C           2.43213460948000    1.64452596379791    0.14910204427843
C           2.48672852041469    2.93718745768178    0.45423740384527
H          -0.00968294217392   -1.98405080089562   -0.58298698702364
H          -0.50429640899761    2.14053236804727    0.49353136146510
H          -2.81221836861165    0.54296142642957   -0.62055658369688
H          -2.67319865672546    0.04674157006011    1.06430005818449
H          -2.60664030678080   -1.17011328580564   -0.21968335596547
H           3.33694093840913    1.08407746531262   -0.04542557979071
H           1.59900323706453    3.51280634199669    0.65005889893500
H           3.42465790003750    3.45943324403655    0.51782878853411
