# ORCA input file
# SCF done        -19.484917043632          0.000622583671
! B3LYP/G D3BJ Opt RIJCOSX def2-SVP def2/J
* xyz 0 1
   N       -1.14065        -0.01003         0.07311
   C       -0.36277        -1.13406         0.05293
   S       -0.94116        -2.66865         0.06656
   C        1.00814        -0.67864         0.01699
   C        1.00416         0.67129         0.01782
   C       -0.36940         1.11858         0.05421
   S       -0.95682         2.64973         0.06965
   H       -2.14938        -0.01301         0.09887
   H        1.84845        -1.34502        -0.00551
   H        1.84054         1.34263        -0.00385
*
