10
 SCF done        -19.484917043632          0.000622583671
N          -1.14064623993183   -0.01003112857031    0.07311280790165
C          -0.36276710693020   -1.13405504188329    0.05293041360409
S          -0.94115618089841   -2.66865242983452    0.06656343376366
C           1.00813740021323   -0.67864039760560    0.01698573583370
C           1.00416303439052    0.67129175946209    0.01781595330750
C          -0.36940258868407    1.11857997442659    0.05420708813481
S          -0.95682254437748    2.64972576202630    0.06964842422885
H          -2.14938361738009   -0.01301479098640    0.09887293627559
H           1.84845010465412   -1.34501719983840   -0.00550782278518
H           1.84053773894422    1.34263349280354   -0.00384897026468
