# ORCA input file
# SCF done        -29.540105493600          0.000414559002
! B3LYP/G D3BJ Opt RIJCOSX def2-SVP def2/J
* xyz 0 1
   C        1.56364         1.21161         0.04627
   S        2.76166        -0.01937        -0.05875
   C        1.54842        -1.23506        -0.06858
   C        0.29484        -0.71509         0.00947
   C        0.30205         0.70790         0.07224
   C       -0.95729         1.50866         0.18285
   C       -2.14788         0.69272        -0.31640
   C       -2.17445        -0.67090         0.36960
   C       -0.96955        -1.53087        -0.03955
   O       -1.14940        -2.11438        -1.31713
   H        1.86578         2.23941         0.08330
   H        1.82805        -2.26716        -0.13724
   H       -0.86227         2.44040        -0.37908
   H       -1.11781         1.77354         1.23318
   H       -2.07745         0.56401        -1.39987
   H       -3.07510         1.22984        -0.10917
   H       -3.08463        -1.21231         0.10642
   H       -2.15870        -0.53200         1.45193
   H       -0.88477        -2.39163         0.63372
   H       -1.18023        -1.40850        -1.97331
*
