# ORCA input file
# SCF done        -14.645030678627          0.000428383430
! B3LYP/G D3BJ Opt RIJCOSX def2-SVP def2/J
* xyz 0 1
   C       -0.20611         1.08485        -0.00462
   O       -1.06874         0.05607        -0.01136
   C       -0.33744        -1.06986        -0.00436
   C        0.99089        -0.77933         0.00620
   C        1.07712         0.63515         0.00444
   H       -0.61954         2.07392        -0.00821
   H       -0.86793        -2.00140        -0.00793
   H        1.80461        -1.47506         0.01332
   H        1.96931         1.22691         0.01014
*
