19
 SCF done        -50.793722506621          0.000180381672
C           0.22190643584416    1.28145563941845    0.23937144900064
S          -0.88079108542348   -0.01727238490015    0.25325306027634
C           0.39248444152573   -1.17768758209938    0.06878541077144
C           1.61890508974930   -0.54703178579571    0.00211153928979
C           1.51507722627362    0.86673854423298    0.10082848558623
C           2.65039230330640    1.84629679875368    0.06372089422355
F           2.19942541070427    3.10668546840335    0.18235465482541
F           3.52435461819630    1.66879099859171    1.06245958824662
F           3.33699911498709    1.80384780086779   -1.08514453899224
C           2.88393727221689   -1.33333689403098   -0.15713193674046
F           3.05360020467946   -2.21100172417472    0.85200136278770
F           2.87140930576558   -2.07209164139247   -1.28470702745592
F           3.98784956350230   -0.59405021219819   -0.20306940909768
C           0.12195402421993   -2.59167894297379    0.00288581009010
C          -1.09732014560648   -3.11598143127783    0.08378369938891
H          -0.12471222231900    2.29145189679624    0.33346215242947
H           0.98223434127038   -3.23344006388517   -0.11913133723654
H          -1.97275124375038   -2.49893443219864    0.20624675409944
H          -1.25345465514236   -4.17807005213719    0.03012938850733
