# ORCA input file
# SCF done        -50.793722506621          0.000180381672
! B3LYP/G D3BJ Opt RIJCOSX def2-SVP def2/J
* xyz 0 1
   C        0.22191         1.28146         0.23937
   S       -0.88079        -0.01727         0.25325
   C        0.39248        -1.17769         0.06879
   C        1.61891        -0.54703         0.00211
   C        1.51508         0.86674         0.10083
   C        2.65039         1.84630         0.06372
   F        2.19943         3.10669         0.18235
   F        3.52435         1.66879         1.06246
   F        3.33700         1.80385        -1.08514
   C        2.88394        -1.33334        -0.15713
   F        3.05360        -2.21100         0.85200
   F        2.87141        -2.07209        -1.28471
   F        3.98785        -0.59405        -0.20307
   C        0.12195        -2.59168         0.00289
   C       -1.09732        -3.11598         0.08378
   H       -0.12471         2.29145         0.33346
   H        0.98223        -3.23344        -0.11913
   H       -1.97275        -2.49893         0.20625
   H       -1.25345        -4.17807         0.03013
*
