8
 SCF done        -16.894294471805          0.000345268360
C           0.00350412012440    1.26487293503703    0.01004917267569
N          -1.17283388929396    0.65157134845834    0.01069852523725
N          -1.17581132066625   -0.64564463133194    0.01477011224617
C          -0.00230100075368   -1.26433150212767    0.01798587757745
N           1.17403067819704   -0.65104574033430    0.01268117024504
N           1.17700806929676    0.64617257415847    0.00860310492312
H           0.00598289415055    2.34485023638680    0.00877955637619
H          -0.00477955105485   -2.34429522024673    0.02356248071909
