# ORCA input file
# SCF done        -16.894294471805          0.000345268360
! B3LYP/G D3BJ Opt RIJCOSX def2-SVP def2/J
* xyz 0 1
   C        0.00350         1.26487         0.01005
   N       -1.17283         0.65157         0.01070
   N       -1.17581        -0.64564         0.01477
   C       -0.00230        -1.26433         0.01799
   N        1.17403        -0.65105         0.01268
   N        1.17701         0.64617         0.00860
   H        0.00598         2.34485         0.00878
   H       -0.00478        -2.34430         0.02356
*
