# ORCA input file
# SCF done        -24.142436455505          0.000479559551
! B3LYP/G D3BJ Opt RIJCOSX def2-SVP def2/J
* xyz 0 1
   C       -1.56421        -1.12356         0.06273
   N       -2.31776         0.00037         0.09403
   C       -1.56410         1.12423         0.06314
   C       -0.23998         0.72464         0.01023
   C       -0.24006        -0.72408         0.00997
   N        0.90661        -1.43184        -0.03625
   C        1.99287        -0.71003        -0.07949
   C        1.99294         0.71039        -0.07922
   N        0.90676         1.43230        -0.03571
   H       -1.99509        -2.10334         0.07962
   H       -3.32578         0.00042         0.13464
   H       -1.99488         2.10405         0.08038
   H        2.92839        -1.25242        -0.11641
   H        2.92852         1.25269        -0.11594
*
