# ORCA input file
# SCF done        -24.596389293442          0.000897803675
! B3LYP/G D3BJ Opt RIJCOSX def2-SVP def2/J
* xyz 0 1
   C        0.29519         1.19583         0.10120
   C        0.98055        -0.01021        -0.05872
   N        2.34972        -0.02731        -0.22094
   C        0.23888        -1.19066        -0.12175
   C       -1.13493        -1.15832        -0.02953
   C       -1.82911         0.04314         0.13178
   C       -1.07839         1.21929         0.19337
   C       -3.28022         0.01569         0.22760
   C       -4.09209         1.05405         0.39409
   H        0.85734         2.11825         0.15099
   H        2.85057         0.78499         0.10021
   H        2.81260        -0.90518        -0.04893
   H        0.75410        -2.13311        -0.24518
   H       -1.68878        -2.08565        -0.07921
   H       -1.57581         2.16878         0.31819
   H       -3.71385        -0.97537         0.14962
   H       -3.73537         2.06657         0.48183
   H       -5.15953         0.92607         0.45176
*
