18
 SCF done        -22.220943787685          0.000287851429
C           0.68288382038595    1.19473899626441    0.00143366340798
C           1.40187183109915    0.00738203445883    0.00259171365051
C           2.90110314932488    0.00174407694652    0.00524119699392
C           0.69532462998831   -1.18876430743291    0.00203281932496
C          -0.68717554978828   -1.19735634068975    0.00051816111952
C          -1.40618917462804   -0.00993540004223   -0.00050423905113
C          -0.69965780904379    1.18614646791527   -0.00011507968421
C          -2.90541505138908   -0.00440541444290   -0.00208210958663
H           1.21017759676007    2.13855800196414    0.00170340938905
H           3.29441463913931    1.01502682958859   -0.00504012347920
H           3.28068195088123   -0.52778447609530   -0.86794443246435
H           3.27713400550852   -0.50805374416250    0.89172087110774
H           1.23640027786913   -2.12471254246191    0.00280818768968
H          -1.21453970047211   -2.14112723895993    0.00013032041948
H          -1.24064223757879    2.12215232219098   -0.00102071098963
H          -3.29864422135322   -1.01775713710659   -0.00078400971837
H          -3.28235256219938    0.51377850653664   -0.88325236536392
H          -3.28419559450384    0.51679936552865    0.87650272723462
