# ORCA input file
# SCF done        -26.683571603303          0.000731036199
! B3LYP/G D3BJ Opt RIJCOSX def2-SVP def2/J
* xyz 0 1
   C       -1.15728        -1.26392        -0.00577
   S       -2.37368        -0.04093        -0.00168
   C       -1.23761         1.24757         0.00197
   C        0.03942         0.75909         0.00033
   C        0.06793        -0.67772        -0.00413
   O        1.33860        -1.13396        -0.00584
   C        2.12864        -0.00958        -0.00240
   C        3.52561        -0.15996        -0.00266
   N        4.66857        -0.25514        -0.00306
   C        1.40860         1.15304         0.00122
   H       -1.42479        -2.29950        -0.00891
   H       -1.58110         2.26125         0.00515
   H        1.80858         2.14633         0.00426
*
