13
 SCF done        -26.683571603303          0.000731036199
C          -1.15727897707406   -1.26391501666792   -0.00577224450497
S          -2.37367546945542   -0.04092598467803   -0.00167857269934
C          -1.23760977874178    1.24757408498479    0.00197244381659
C           0.03941750119687    0.75909450372812    0.00033411165399
C           0.06793154667339   -0.67772310984442   -0.00413414616213
O           1.33859820947511   -1.13396493911899   -0.00583578428041
C           2.12863879831348   -0.00958349242982   -0.00239613733525
C           3.52561449517457   -0.15996255814680   -0.00265836613295
N           4.66856990971428   -0.25513578131735   -0.00306034414888
C           1.40860102350430    1.15304255627738    0.00121968274520
H          -1.42478644873978   -2.29949678076797   -0.00891491329673
H          -1.58109874551477    2.26125055830966    0.00514961218645
H           1.80857793547382    2.14632595967135    0.00426465815842
