# ORCA input file
# SCF done        -57.182030735975          0.000398316548
! B3LYP/G D3BJ Opt RIJCOSX def2-SVP def2/J
* xyz 0 1
   C        1.62213         1.21343        -0.05105
   S        2.81114        -0.01936        -0.00940
   C        1.60357        -1.23378         0.03675
   C        0.34695        -0.71038         0.02419
   C        0.35728         0.70985        -0.03064
   C       -0.89695         1.53602        -0.00919
   C       -1.01448         2.21074         1.35917
   F       -0.03797         3.11243         1.54852
   F       -2.17099         2.87649         1.50244
   F       -0.94100         1.35641         2.38937
   C       -2.13626         0.69284        -0.33455
   C       -2.13163        -0.65227         0.39035
   C       -0.92141        -1.51363         0.01073
   C       -1.08250        -2.14878        -1.37195
   F       -0.13768        -3.07564        -1.59748
   F       -2.26190        -2.77365        -1.51316
   F       -0.99619        -1.27275        -2.38289
   H        1.92026         2.24220        -0.08123
   H        1.88519        -2.26729         0.06500
   H       -0.81584         2.36142        -0.72564
   H       -2.16415         0.53393        -1.41259
   H       -3.03451         1.24742        -0.05817
   H       -3.05029        -1.19205         0.15470
   H       -2.10649        -0.49348         1.46871
   H       -0.84021        -2.35972         0.70267
*
