17
 SCF done        -24.370370995368          0.000826905160
C          -1.13858215445383   -0.09815861403478   -0.19377686129403
C          -0.28447327141975    0.99937732228845   -0.05691222953699
C           0.00224407169709    2.48181378307178    0.01927315216043
C           1.50425029433195    2.09637430321331    0.19955748418856
C           1.03188790393685    0.67455952363954    0.10203484562365
S           1.30984106308790   -1.01076238216942    0.09391873407091
C          -0.41863980512472   -1.27427492456097   -0.13224647909430
C          -0.87768512400265   -2.63321273044129   -0.22443468478618
C          -2.14084863808807   -3.01639817792747   -0.39484761687231
H          -2.20362637170984   -0.06571571072437   -0.32857000750162
H          -0.43871176157801    2.98900611502890    0.87508183098164
H          -0.21487538036880    3.03755135383383   -0.89068057280069
H           1.93824424826735    2.37583350588080    1.15843941951362
H           2.16179095502729    2.42242154970439   -0.60500238738511
H          -0.09879426893404   -3.38156006914429   -0.14538458977310
H          -2.94878100323010   -2.31074599692971   -0.47960097280049
H          -2.40531075743865   -4.05731885072876   -0.45342906469410
