# ORCA input file
# SCF done        -41.419462144020          0.000310637235
! B3LYP/G D3BJ Opt RIJCOSX def2-SVP def2/J
* xyz 0 1
   C        1.56917         0.10251        -0.34872
   S        1.04743        -1.51191        -0.10097
   C        2.29423        -1.76989         1.05776
   C        3.05670        -0.66675         1.23395
   C        2.65047         0.43264         0.42138
   C        3.32811         1.71275         0.45309
   C        3.09464         2.73969        -0.36019
   C        3.80908         4.04849        -0.27634
   C        2.87029         5.18584        -0.00917
   S        1.17902         4.90944         0.25705
   C        0.88720         6.60582         0.48470
   C       -0.49500         7.11153         0.72170
   C       -1.24880         7.29677        -0.59754
   C        2.03800         7.31553         0.35513
   C        3.16542         6.50962         0.07635
   H        1.03566         0.71745        -1.04478
   H        2.37919        -2.72609         1.53436
   H        3.88891        -0.61950         1.91405
   H        4.09410         1.80214         1.21403
   H        2.34139         2.67163        -1.13239
   H        4.32776         4.24286        -1.22322
   H        4.56678         4.01322         0.51313
   H       -0.43687         8.06838         1.24582
   H       -1.04174         6.40693         1.35228
   H       -0.72499         8.00562        -1.23505
   H       -2.25247         7.67108        -0.41087
   H       -1.32312         6.34818        -1.12462
   H        2.08579         8.38537         0.46002
   H        4.15918         6.90171        -0.05296
*
