29
 SCF done        -41.419462144020          0.000310637235
C           1.56917015185470    0.10251470087875   -0.34872016386611
S           1.04743236196178   -1.51191193567126   -0.10097384639889
C           2.29422941853166   -1.76989068568946    1.05775867826174
C           3.05670334916802   -0.66675039585065    1.23394577093091
C           2.65046756499866    0.43264094750685    0.42138453063847
C           3.32811242169103    1.71274796069980    0.45309377684526
C           3.09464244649006    2.73969121362814   -0.36018826193193
C           3.80908040647540    4.04848744513166   -0.27633611757411
C           2.87028906742910    5.18583612818137   -0.00916529852263
S           1.17902045671605    4.90943521541233    0.25704730164550
C           0.88720124253654    6.60582086488659    0.48470244210879
C          -0.49499934179189    7.11153146756005    0.72170003334337
C          -1.24879706483837    7.29677248868158   -0.59753683497203
C           2.03800399255679    7.31553254310073    0.35513275457605
C           3.16542329417185    6.50962381776842    0.07634756647669
H           1.03566399214485    0.71744513414045   -1.04478249730916
H           2.37919173264225   -2.72609019093195    1.53436184074018
H           3.88891148943658   -0.61949829414598    1.91405426944240
H           4.09410081445208    1.80214246478362    1.21403242422411
H           2.34139353396134    2.67163220195371   -1.13239021801537
H           4.32776127247020    4.24285697975727   -1.22322141415955
H           4.56677717261996    4.01322078965618    0.51312604885346
H          -0.43686771097139    8.06838108207363    1.24582177931976
H          -1.04173710556779    6.40692972853604    1.35227918537596
H          -0.72499445390484    8.00561791440156   -1.23505315125815
H          -2.25247485023985    7.67108336362094   -0.41087062044976
H          -1.32311711591937    6.34817894476257   -1.12461965340831
H           2.08579275119689    8.38537218098484    0.46001614354003
H           4.15917870972821    6.90170592418255   -0.05295646845742
