23
 SCF done        -40.306786086779          0.000453468829
C           1.34479037948925    1.22064246310471    0.07869423185402
S           2.52712729024964   -0.03224109384713    0.03785669948700
C           0.09595804205748    0.69467910625731    0.03404200297260
C          -1.29233442095667    1.18875165721524    0.03471527951454
O          -1.72184171282934    2.31303097021402    0.07577413902474
N          -2.07043828503024    0.03921577167196   -0.03634367808710
C          -3.51752810862913    0.06831404596774   -0.03176155401145
C          -4.06589335505625    0.08928440388530    1.39071081817961
C          -1.34108283788801   -1.14475096538640   -0.07682909576344
O          -1.83823989623669   -2.24306934134602   -0.14202731736101
C           0.06937050472787   -0.72828704243692   -0.03437276900458
C           1.31691647845121   -1.29935827450182   -0.04271130398379
C           1.75534882874479   -2.66740571360047   -0.10202471539715
C           0.93834740978124   -3.71632109411179   -0.17033092034656
H           1.64713207419602    2.24715542661856    0.13211551520883
H          -3.86149269839361   -0.82370016845076   -0.56065980357803
H          -3.82976849412779    0.96567769716237   -0.57155861362532
H          -3.74344653104581   -0.79760989856375    1.93160664516654
H          -5.15167044533678    0.10852397106953    1.36574908180759
H          -3.71178298517914    0.97352190657400    1.91560769971409
H           2.82973388393693   -2.80022250691000   -0.08805985518194
H          -0.13184118341772   -3.60158776542953   -0.18656142882395
H           1.32777606249256   -4.71872355515604   -0.21291105776532
