19
 SCF done        -26.714985249252          0.000777498740
C           0.60942776043852    1.46356870892733   -0.01108810117918
C          -0.72719956989367    1.11229846912703   -0.14204834239803
N          -1.16382365112930   -0.12884795287206   -0.12063302008087
C          -0.28073927553462   -1.11868488860366    0.03492862339004
C           1.08885183382937   -0.86339511879707    0.17435518398688
C           1.53542060561549    0.44392671586227    0.15088405383993
C          -0.78216793806191   -2.47874744499783    0.05618246113150
C          -2.08062119387596   -2.79389865860891   -0.06716653566522
C          -2.58180064385379   -4.14178761475795   -0.04434787226161
C          -3.87191089626392   -4.44903061955771   -0.16361945271000
H           0.91380154016546    2.49830360867162   -0.03478468914390
H          -1.49113448975477    1.86933829336271   -0.27046132987896
H           1.78161980182904   -1.68246513012291    0.29849451349144
H           2.58780047477018    0.66709430282637    0.25701213420675
H          -0.03978199874651   -3.25699546013037    0.18115524257524
H          -2.79752300599485   -1.99459515980392   -0.19030576688257
H          -1.84677363359069   -4.92794491477523    0.07720656595587
H          -4.62157910844073   -3.68530029174672   -0.28746753969612
H          -4.22094661150732   -5.46710684400299   -0.14437612868120
