24
 SCF done        -40.442062367289          0.000731189573
C          -1.78761495810810    1.37630136832471    0.11931075186902
S          -2.88776297335298    0.07895648051584    0.13079560470251
C          -1.62263227264291   -1.10863873751358    0.09600577883143
C          -0.37678641133596   -0.48847645237421    0.07761507350118
C          -0.47848365264194    0.94533345593492    0.08959793595353
C           0.69418404498025    1.72900047258170    0.06900022417343
C           1.91524835749791    1.11043560829336    0.04161555757438
C           3.09793473574246    1.88265958145850    0.01729585944150
N           4.04070626940546    2.53441791982464   -0.00321337786719
C           2.02543796971921   -0.32444672879725    0.03646304639051
O           3.30130410176937   -0.78311565697519    0.01572409012390
C           3.51946381384786   -2.17208366985122    0.02036945599097
C           0.89903845337174   -1.09882621400511    0.05239429673924
C          -1.91133928704647   -2.51181186411498    0.08495636471792
C          -3.13256458870585   -3.04445867037820    0.10398122817470
H          -2.14676966141254    2.38580988323105    0.13440486741779
H           0.62478525959345    2.80635219065241    0.07422107639960
H           4.60046041841948   -2.29817807305696    0.00961808005518
H           3.08907512872390   -2.64812819548819   -0.86665422288558
H           3.10786357680789   -2.63862003535254    0.92130650369955
H           0.96298380170283   -2.17440936416163    0.04682376253148
H          -1.04432148129732   -3.15946737272025    0.05719328438698
H          -4.01585444700711   -2.42837128675760    0.13294876280858
H          -3.28342619803209   -4.10876463926903    0.09153599526824
