# ORCA input file
# SCF done        -48.907980563309          0.000508190477
! B3LYP/G D3BJ Opt RIJCOSX def2-SVP def2/J
* xyz 0 1
   C       -3.45588        -0.88217        -0.05904
   C       -2.38154        -1.70981        -0.09599
   C       -1.13641        -0.98017        -0.07242
   C       -1.36475         0.41966        -0.04311
   S       -3.07094         0.79630        -0.02653
   C       -0.36500         1.37608        -0.01545
   C       -0.68526         2.83988         0.04021
   C       -0.73923         3.32997         1.48833
   C        0.94711         0.89895         0.01140
   C        1.18096        -0.49485         0.00951
   C        0.17988        -1.45368        -0.02433
   C        0.55459        -2.90615        -0.02308
   C        0.83396        -3.40033        -1.44431
   S        2.89364        -0.84069         0.07373
   C        3.25976         0.85011         0.10434
   C        2.16851         1.63857         0.06671
   C       -2.55503        -3.15721        -0.18778
   C       -3.43201        -3.83537         0.53879
   H       -4.48879        -1.17164        -0.08470
   H       -1.65489         3.01232        -0.43265
   H        0.06769         3.40585        -0.51084
   H       -1.50712         2.79072         2.03813
   H       -0.97201         4.39166         1.51934
   H        0.21633         3.16664         1.98206
   H       -0.23702        -3.49811         0.43647
   H        1.46167        -3.03133         0.57406
   H       -0.02771        -3.23801        -2.08870
   H        1.07036        -4.46173        -1.43630
   H        1.67839        -2.86146        -1.86768
   H        4.28949         1.14773         0.14962
   H        2.21523         2.71242         0.08239
   H       -1.95350        -3.66762        -0.92713
   H       -4.03687        -3.35542         1.29048
   H       -3.56488        -4.89716         0.42088
*
