23
 SCF done        -37.481453956433          0.000869899606
N           0.80715802014264   -1.32906763239254   -0.72191104257937
C          -0.39390169951638   -0.70726292209995   -0.33110655828742
C          -1.55482976934490   -1.37526272372651   -0.09413782583397
S          -2.84622655722436   -0.32927247555898    0.33267622369644
C          -1.80438948082909    1.03651735464821    0.23152271143261
C          -0.53438601773883    0.71346835625754   -0.15925555263564
N           0.47856678211779    1.63068540390665   -0.40781517782079
C           1.84881125685187    1.16618516661319   -0.49856590497512
C           2.14977073245375    0.18830976769894    0.62728679037400
O           2.58143672454556    0.52986225702878    1.69483086092800
C           1.85831018233324   -1.25524750368809    0.27778668434790
C           0.17296773469621    2.93513224000668   -0.73311794485252
C           1.00532949318621    3.91518597760607   -1.07132314546147
H           0.63272841522007   -2.29090581926105   -0.99268943101788
H          -1.72841224092839   -2.43002978936745   -0.17901408343991
H          -2.21189407779443    1.99914348451850    0.46031267125805
H           2.50464276170554    2.02787067189555   -0.36985114125251
H           2.03789612703355    0.68961371925780   -1.46833800681017
H           1.62980900727809   -1.80704509336882    1.20333442470934
H           2.77611651472625   -1.67701993267080   -0.14808352228873
H          -0.88740161482625    3.13444162486114   -0.72192889026135
H           2.07461236135443    3.82326075798212   -1.12550348806226
H           0.60755534455742    4.88396710985314   -1.30855865116738
