# ORCA input file
# SCF done        -23.583963038087          0.000408649620
! B3LYP/G D3BJ Opt RIJCOSX def2-SVP def2/J
* xyz 0 1
   C       -0.07351         1.17044        -0.19357
   S       -1.21428        -0.11923        -0.06851
   C        0.04673        -1.25063         0.21398
   C        1.26820        -0.66816         0.20295
   C        1.21175         0.73681        -0.03789
   N        2.35317         1.50567        -0.15214
   C        2.25517         2.94756        -0.09562
   C        3.64144         3.56919        -0.16728
   H       -0.43292         2.15913        -0.38928
   H       -0.19671        -2.28238         0.37062
   H        2.19018        -1.20149         0.35476
   H        3.14178         1.13149         0.35724
   H        1.74119         3.28322         0.82041
   H        1.65799         3.27450        -0.95295
   H        4.23877         3.27376         0.69338
   H        3.56550         4.65293        -0.17670
   H        4.15070         3.24595        -1.07159
*
