17
 SCF done        -23.583963038087          0.000408649620
C          -0.07351387180388    1.17044470264729   -0.19357447099806
S          -1.21428141599848   -0.11923305522494   -0.06851464422175
C           0.04673454967711   -1.25062779559853    0.21398208908516
C           1.26820324318561   -0.66816440844594    0.20295341666706
C           1.21174551576774    0.73680797508491   -0.03788984327188
N           2.35316538093747    1.50566721825759   -0.15214164282391
C           2.25517490546036    2.94756013062109   -0.09562218855916
C           3.64144069566003    3.56919169546873   -0.16727698942482
H          -0.43292187222056    2.15913013385855   -0.38928132310526
H          -0.19670814667567   -2.28238449039379    0.37061550568843
H           2.19017742068887   -1.20149107393190    0.35476358270166
H           3.14177852042939    1.13148631143015    0.35723995372914
H           1.74119446326298    3.28322402900889    0.82040762961136
H           1.65799253112530    3.27450423868410   -0.95294736928631
H           4.23877481330452    3.27376277280669    0.69338118201535
H           3.56549744758491    4.65293417279705   -0.17669854164918
H           4.15069581961432    3.24594744293006   -1.07158634615783
