22
 SCF done        -36.237752631103          0.000477404191
C          -2.23983565833164   -1.80070508337227   -0.02370335905380
C          -3.36358358458685   -1.05894751824457   -0.02367921496795
S          -3.06425016162345    0.64541886013680    0.02802848264229
C          -1.33833082420873    0.37926201632179    0.03984720352006
C          -1.05309410329370   -1.00778301473300    0.00589661926966
C           0.26511763405547   -1.45041109438656   -0.01858939751040
C           1.25832882773846   -0.49542190338994   -0.01818260286592
C           0.98380164024083    0.89296947706597   -0.00329363867235
C           2.19038561945662    1.65701936626801   -0.00089325644644
C           3.30077315526800    0.89270614082775   -0.02281636824304
S           2.97428376667246   -0.80698903230413   -0.04282041338778
C          -0.34430617548844    1.35490734162056    0.02714841770561
C          -0.61502380202234    2.78761693740695    0.00744156869313
C          -1.64858315088600    3.39335167920106    0.57712522362773
H          -2.22469661898330   -2.87550299450039   -0.05019034363227
H          -4.38140952834826   -1.39722399626967   -0.04255981751286
H           0.49548030220788   -2.50341835541437   -0.04438843414305
H           2.21952296551698    2.73108064862614    0.02629670069777
H           4.32330394249456    1.21685884414683   -0.02596809021754
H           0.12109292479025    3.38055691034297   -0.52022252451296
H          -2.38794064533211    2.86206018756788    1.15103186550991
H          -1.77706652533701    4.45994458308204    0.50744137950025
