# ORCA input file
# SCF done        -36.237752631103          0.000477404191
! B3LYP/G D3BJ Opt RIJCOSX def2-SVP def2/J
* xyz 0 1
   C       -2.23984        -1.80071        -0.02370
   C       -3.36358        -1.05895        -0.02368
   S       -3.06425         0.64542         0.02803
   C       -1.33833         0.37926         0.03985
   C       -1.05309        -1.00778         0.00590
   C        0.26512        -1.45041        -0.01859
   C        1.25833        -0.49542        -0.01818
   C        0.98380         0.89297        -0.00329
   C        2.19039         1.65702        -0.00089
   C        3.30077         0.89271        -0.02282
   S        2.97428        -0.80699        -0.04282
   C       -0.34431         1.35491         0.02715
   C       -0.61502         2.78762         0.00744
   C       -1.64858         3.39335         0.57713
   H       -2.22470        -2.87550        -0.05019
   H       -4.38141        -1.39722        -0.04256
   H        0.49548        -2.50342        -0.04439
   H        2.21952         2.73108         0.02630
   H        4.32330         1.21686        -0.02597
   H        0.12109         3.38056        -0.52022
   H       -2.38794         2.86206         1.15103
   H       -1.77707         4.45994         0.50744
*
