30
 SCF done        -42.786020611875          0.000656210020
N          -2.48317340893907    1.12385588862696   -0.55073116275079
C          -3.36800404167700    0.04069054817336   -0.06277796036109
N          -2.56334036150503   -1.13888080756453    0.26041976349353
C          -1.25193439741571   -0.57832312035638    0.51070653498446
N          -0.11912740755771   -1.47997683794115    0.51870461046489
C           1.01874420128131   -0.81800423332792   -0.08832370441029
C           0.99660520962621    0.66018799084663    0.34768381518951
N          -0.06028566946060    1.42955174264383   -0.28207763616458
C          -1.15650706156724    0.53199192070184   -0.57712314617737
N           2.35100879389165    1.04808352432861    0.03482662756304
C           3.13104437250112   -0.04718853946907    0.59789381005651
N           2.32014194186661   -1.23671624848309    0.37765147546286
C           2.91217792581605   -2.38864576882527   -0.08934408002156
C           2.31890858615457   -3.38775255309789   -0.73202386988094
H          -2.47593387938920    1.90484713637852    0.09657379377082
H          -4.10229396586583   -0.20270708293534   -0.83522246961586
H          -3.90306940981905    0.35602527548902    0.83870780762396
H          -2.51512906534578   -1.75837552507610   -0.54541014708555
H          -1.31053260089745   -0.08286109693118    1.49285375405011
H          -0.33557294915532   -2.36499221341015    0.07517933476883
H           1.00041317456310   -0.87582549781762   -1.19917510593430
H           0.81387834096131    0.67382269603391    1.43987698154189
H           0.28389594961964    1.88071643514666   -1.12363418048443
H          -1.05134126362145    0.03990263923331   -1.56413787222920
H           2.60445064159057    1.94337891394254    0.43814419216861
H           3.30426838155630    0.07435336973562    1.68431057222537
H           4.09859900985970   -0.11154952791775    0.08873983258746
H           3.96308775395402   -2.45180776160045    0.16052724733194
H           1.27718425862597   -3.38010859430989   -0.99416468708996
H           2.87433694034792   -4.26597267221778   -1.00214413107850
