# ORCA input file
# SCF done        -42.786020611875          0.000656210020
! B3LYP/G D3BJ Opt RIJCOSX def2-SVP def2/J
* xyz 0 1
   N       -2.48317         1.12386        -0.55073
   C       -3.36800         0.04069        -0.06278
   N       -2.56334        -1.13888         0.26042
   C       -1.25193        -0.57832         0.51071
   N       -0.11913        -1.47998         0.51870
   C        1.01874        -0.81800        -0.08832
   C        0.99661         0.66019         0.34768
   N       -0.06029         1.42955        -0.28208
   C       -1.15651         0.53199        -0.57712
   N        2.35101         1.04808         0.03483
   C        3.13104        -0.04719         0.59789
   N        2.32014        -1.23672         0.37765
   C        2.91218        -2.38865        -0.08934
   C        2.31891        -3.38775        -0.73202
   H       -2.47593         1.90485         0.09657
   H       -4.10229        -0.20271        -0.83522
   H       -3.90307         0.35603         0.83871
   H       -2.51513        -1.75838        -0.54541
   H       -1.31053        -0.08286         1.49285
   H       -0.33557        -2.36499         0.07518
   H        1.00041        -0.87583        -1.19918
   H        0.81388         0.67382         1.43988
   H        0.28390         1.88072        -1.12363
   H       -1.05134         0.03990        -1.56414
   H        2.60445         1.94338         0.43814
   H        3.30427         0.07435         1.68431
   H        4.09860        -0.11155         0.08874
   H        3.96309        -2.45181         0.16053
   H        1.27718        -3.38011        -0.99416
   H        2.87434        -4.26597        -1.00214
*
