12
 SCF done        -30.495187143794          0.000190476831
C          -0.22975851155417    1.09863479877964   -0.00738634756646
O          -1.06736263620613    0.06407435032082   -0.01444268138796
C          -0.33205350997352   -1.05814787410879   -0.01025878570514
C           0.99538525391380   -0.76506518681510   -0.00034357575475
C           1.06330092337332    0.65482379268064    0.00157694464003
C           2.29884319456363    1.47916964625733    0.01159991087773
F           2.03261386440637    2.79421853062907    0.00707296222039
F           3.06396653630094    1.24689517490424    1.09304061934214
F           3.08370313910671    1.24337094329789   -1.05475742277567
H          -0.63760821951043    2.08985001842462   -0.00940230527020
H          -0.85562653307247   -1.99294561728432   -0.01497995402453
H           1.82205649865195   -1.44376857708604    0.00495063540443
