# ORCA input file
# SCF done        -30.495187143794          0.000190476831
! B3LYP/G D3BJ Opt RIJCOSX def2-SVP def2/J
* xyz 0 1
   C       -0.22976         1.09863        -0.00739
   O       -1.06736         0.06407        -0.01444
   C       -0.33205        -1.05815        -0.01026
   C        0.99539        -0.76507        -0.00034
   C        1.06330         0.65482         0.00158
   C        2.29884         1.47917         0.01160
   F        2.03261         2.79422         0.00707
   F        3.06397         1.24690         1.09304
   F        3.08370         1.24337        -1.05476
   H       -0.63761         2.08985        -0.00940
   H       -0.85563        -1.99295        -0.01498
   H        1.82206        -1.44377         0.00495
*
