# ORCA input file
# SCF done        -38.431287386292          0.000744833564
! B3LYP/G D3BJ Opt RIJCOSX def2-SVP def2/J
* xyz 0 1
   C        2.49951         0.92100         0.01000
   C        3.12935        -0.28254         0.12082
   O        4.45593        -0.53658         0.18397
   S        2.05835        -1.66116         0.18799
   C        0.69726        -0.59408         0.06200
   C        1.09917         0.74476        -0.02406
   N       -0.00375         1.54735        -0.12493
   C       -1.11226         0.73763        -0.10524
   C       -0.70252        -0.60275         0.01048
   S       -2.05294        -1.66779         0.03396
   C       -3.15846        -0.30508        -0.11320
   C       -2.50153         0.90032        -0.17460
   C       -4.56661        -0.58370        -0.15618
   C       -5.53614         0.32266        -0.26228
   H        3.00867         1.86656        -0.04372
   H        4.95253         0.28854         0.13322
   H       -0.00389         2.54936        -0.19834
   H       -3.00193         1.84636        -0.26582
   H       -4.82129        -1.63367        -0.09723
   H       -5.33294         1.37747        -0.32323
   H       -6.57102         0.03123        -0.29054
*
