29
 SCF done        -62.459205783454          0.000515478449
C           1.52211242583409   -1.18472487837055   -0.08879936182607
S           2.64843219926841    0.10123336345249   -0.08382739188160
C           1.37767516853766    1.28508654713713   -0.00360741209608
C           0.14778211913398    0.67511724806967    0.03571836129140
C           0.23635622900292   -0.74206827935198   -0.01517411268485
C          -0.96300977161871   -1.64726878789525   -0.05943323488937
C          -1.10527669934947   -2.19111966651444   -1.48305435382286
F          -0.07054544672984   -2.97652867936883   -1.81952330602138
F          -2.20767516491929   -2.94226796558782   -1.63271532877769
F          -1.17052673590661   -1.23549466646195   -2.42039779615200
C          -2.24248469412580   -0.93787004049933    0.39813817178912
C          -2.34520267624806    0.47918858103396   -0.16093421068439
C          -1.16936082535679    1.36119722799012    0.27355859929211
C          -1.25770211357946    1.72891893717042    1.75800168529976
F          -0.42058986118232    2.72801006516468    2.07452004299565
F          -2.48557615355084    2.14635077782746    2.10786088127383
F          -0.95569842438517    0.71688403230228    2.58506645786448
C           1.76824855034733    2.68117031539720   -0.00085266480025
C           1.13901156683973    3.67521659544697   -0.61413109174234
H           1.86680746032621   -2.19722067722782   -0.15479968642896
H          -0.78763774574970   -2.53076980348242    0.56474968862855
H          -2.24621505133250   -0.90944222460376    1.48766535582761
H          -3.11194075201569   -1.51627753736678    0.08109467269907
H          -3.28048731568195    0.93132861264990    0.17311545648385
H          -2.35865084607436    0.45088219548940   -1.25083127934801
H          -1.21914694454422    2.31457697638014   -0.25734641472253
H           2.69834750944993    2.87937654201640    0.51618228283136
H           0.24502666952389    3.53140293809590   -1.19609402400210
H           1.51964732408680    4.67997225110673   -0.57014998639620
