# ORCA input file
# SCF done        -35.564408557141          0.000693402484
! B3LYP/G D3BJ Opt RIJCOSX def2-SVP def2/J
* xyz 0 1
   C       -1.04686        -1.34665         0.15055
   C        0.21788        -0.80841         0.12970
   C        0.19741         0.63288         0.12909
   N        1.34625         1.34562         0.11133
   C        2.44417         0.64970         0.08862
   C        2.47729        -0.78039         0.08686
   C        3.78884        -1.50012         0.02519
   C        4.34582        -1.47077        -1.39992
   N        1.38614        -1.49448         0.11025
   C       -1.08838         1.15989         0.14952
   S       -2.24388        -0.12823         0.16800
   C       -1.43978         2.54751         0.15105
   C       -2.68381         3.02260         0.16015
   H       -1.32524        -2.38057         0.15419
   H        3.36868         1.21261         0.07889
   H        3.63316        -2.53356         0.33655
   H        4.49899        -1.02407         0.70533
   H        3.65082        -1.95415        -2.08237
   H        5.29631        -1.99679        -1.44180
   H        4.50098        -0.44666        -1.73339
   H       -0.58474         3.21035         0.14179
   H       -3.53728         2.36354         0.17001
   H       -2.88461         4.07885         0.16000
*
