23
 SCF done        -35.564408557141          0.000693402484
C          -1.04686175404771   -1.34664571459497    0.15054513857958
C           0.21787537006793   -0.80840686629223    0.12969724139395
C           0.19741113114827    0.63287708267874    0.12909471673491
N           1.34625386258641    1.34562161446474    0.11133248088458
C           2.44417057443897    0.64969766556913    0.08861561341850
C           2.47728743228267   -0.78038781437460    0.08686026015198
C           3.78883542221873   -1.50012403759854    0.02519301643268
C           4.34582252923484   -1.47076963820729   -1.39991940788797
N           1.38613683255545   -1.49448166085487    0.11024806767322
C          -1.08838000048529    1.15988546148977    0.14952089151207
S          -2.24388318687332   -0.12823045375053    0.16799947067996
C          -1.43977537574672    2.54751033477968    0.15104688490383
C          -2.68381010717168    3.02260160835446    0.16014515122946
H          -1.32524355165005   -2.38056857249205    0.15418977729614
H           3.36868497489478    1.21260585313995    0.07889270817430
H           3.63316301743831   -2.53356216133468    0.33655250816398
H           4.49898942477492   -1.02406913804708    0.70532880227056
H           3.65082154743555   -1.95414575051867   -2.08237470619614
H           5.29630884213621   -1.99678662156435   -1.44179517709244
H           4.50098325719736   -0.44665591836235   -1.73338779488256
H          -0.58473637828543    3.21034875764449    0.14178616989227
H          -3.53728382833974    2.36353919634203    0.17000910150880
H          -2.88461003581050    4.07884677352897    0.15999908515827
