# ORCA input file
# SCF done        -25.103973312697          0.000861397007
! B3LYP/G D3BJ Opt RIJCOSX def2-SVP def2/J
* xyz 0 1
   C        0.31510         1.13761         0.01010
   S        1.47636        -0.29223         0.10533
   C       -0.12247        -0.98247         0.08106
   C       -0.82871         0.16455         0.01164
   C       -2.25980         0.41319        -0.04681
   O       -3.11547        -0.44017        -0.04381
   O       -2.52244         1.73496        -0.10335
   C       -3.89577         2.08490        -0.16488
   H        0.44657         1.71031        -0.90356
   H        0.38808         1.78224         0.88140
   H       -0.38718        -2.02079         0.11413
   H       -3.93638         3.17011        -0.11597
   H       -4.43900         1.64036         0.67170
   H       -4.33691         1.72688        -1.09780
*
