14
 SCF done        -25.103973312697          0.000861397007
C           0.31509898302152    1.13760955055860    0.01009756365915
S           1.47636108660600   -0.29223035347932    0.10532654366403
C          -0.12247489499893   -0.98247053939218    0.08106281555535
C          -0.82871032586793    0.16455071053869    0.01164462161129
C          -2.25979775140527    0.41318802425004   -0.04681145869277
O          -3.11547432272852   -0.44017407380674   -0.04380607692729
O          -2.52243872135987    1.73495864834551   -0.10334805506445
C          -3.89576518395482    2.08489724468542   -0.16488277973482
H           0.44657155004219    1.71031098973527   -0.90355743732678
H           0.38808218465134    1.78223539148095    0.88139974546539
H          -0.38718145458520   -2.02079210866069    0.11413272803777
H          -3.93637649688529    3.17011333991221   -0.11596632033366
H          -4.43900371475854    1.64036240732178    0.67170487565532
H          -4.33691093777668    1.72688076851047   -1.09779676556853
