19
 SCF done        -32.912437639048          0.000638343387
C          -1.57091668920598    1.23126929316509   -0.05928375505472
S          -2.70746431659769   -0.03317462821462   -0.13572919987729
C          -1.48819296249399   -1.26123533650118   -0.06421907048640
C          -0.22392569839897   -0.68048280628440   -0.02360749599681
C          -0.27853838617398    0.76097627416354   -0.00654839363759
C           0.90869246941137    1.53215567851741    0.04621186613036
C           2.11478434073571    0.90580918738341    0.04720785282218
C           2.19697577140932   -0.50215633052417   -0.02832020824273
C           1.06767533295313   -1.26077501210308   -0.07073015875268
F           1.20370025094258   -2.59911456300878   -0.19316230103480
C          -1.94198143025360   -2.62952162477738   -0.01536770775425
C          -1.35171646159141   -3.63594179505447    0.62224819300316
H          -1.89957438993737    2.25095089425504   -0.05501104868849
H           0.82965849381119    2.60779741350565    0.07558189885081
H           3.03054062090148    1.47510695673312    0.08728974019344
H           3.15877449217016   -0.98842474444282   -0.06801832317770
H          -2.89839116904742   -2.79425804841439   -0.49924256600626
H          -0.43278997855005   -3.52093010116717    1.16763187367948
H          -1.78353029008452   -4.62140070723072    0.61402880403033
