# ORCA input file
# SCF done        -37.600238971383          0.000543045694
! B3LYP/G D3BJ Opt RIJCOSX def2-SVP def2/J
* xyz 0 1
   C        1.49329        -1.29556        -0.05482
   S        2.73413        -0.11620        -0.10297
   C        1.57168         1.17805        -0.00781
   C        0.29120         0.68096         0.03785
   C        0.25396        -0.73891         0.01570
   C       -1.00953        -1.55403        -0.00731
   N       -1.08934        -2.22657        -1.29893
   C       -2.22340        -0.66604         0.32101
   C       -2.14801         0.66132        -0.42588
   C       -0.96218         1.50842         0.07034
   N       -1.15171         2.05829         1.41001
   C        2.06959         2.53220        -0.01808
   C        1.44079         3.59353         0.47711
   H        1.73961        -2.33724        -0.09239
   H       -0.93824        -2.35252         0.74393
   H       -1.10048        -1.54679        -2.05175
   H       -1.93899        -2.77744        -1.35944
   H       -2.25450        -0.48264         1.39788
   H       -3.14023        -1.19887         0.05344
   H       -3.07470         1.22525        -0.28651
   H       -2.03064         0.47885        -1.49694
   H       -0.83871         2.37127        -0.59951
   H       -1.13572         1.31814         2.10294
   H       -2.04771         2.53073         1.47139
   H        3.05570         2.64007        -0.45344
   H        0.49173         3.50594         0.97450
   H        1.88360         4.57347         0.41977
*
