# ORCA input file
# SCF done        -33.460980654388          0.000842667511
! B3LYP/G D3BJ Opt RIJCOSX def2-SVP def2/J
* xyz 0 1
   C       -1.27109         0.02949        -0.09523
   S       -0.26113         1.40810         0.02224
   C        1.16572         0.43847         0.16208
   C        0.84895        -0.91057         0.14953
   C       -0.56179        -1.13507        -0.02426
   O       -1.13120        -2.34051        -0.09280
   C        1.70985        -2.06857         0.42034
   O        1.33973        -3.20169         0.18957
   O        2.89702        -1.86254         0.99939
   C        2.43153         1.13875         0.17850
   C        3.56934         0.71257        -0.36790
   H       -2.32803         0.13806        -0.22150
   H       -0.41483        -3.01356        -0.04799
   H        3.09330        -0.92173         1.12972
   H        2.38484         2.12934         0.61280
   H        3.65047        -0.22872        -0.88616
   H        4.45675         1.32001        -0.34199
*
