# ORCA input file
# SCF done        -31.819504460997          0.000984998226
! B3LYP/G D3BJ Opt RIJCOSX def2-SVP def2/J
* xyz 0 1
   C       -1.21827        -0.01997        -0.21553
   S       -1.15688        -1.42909        -1.22315
   C        0.25837        -1.95010        -0.42638
   C        0.65747        -1.06287         0.57607
   C       -0.20069         0.04611         0.68745
   C        1.86865        -1.55922         1.22589
   S        2.69310        -0.85472         2.44403
   C        2.16467        -2.80496         0.53749
   C        1.20057        -3.02931        -0.44302
   O        1.42972        -4.16152        -1.09883
   C        2.55238        -4.68874        -0.54568
   C        3.04896        -3.90362         0.45886
   H       -2.01883         0.67718        -0.36180
   H       -0.07408         0.84448         1.39538
   H        2.89565        -5.61932        -0.95113
   H        3.91946        -4.09283         1.05200
*
