16
 SCF done        -31.819504460997          0.000984998226
C          -1.21826934185396   -0.01996840157643   -0.21552983589887
S          -1.15687825270805   -1.42909381955488   -1.22315239394506
C           0.25836512789468   -1.95009779642370   -0.42638184106254
C           0.65746815288597   -1.06286959706815    0.57606569393164
C          -0.20068623694656    0.04610603503570    0.68745146763426
C           1.86865466170650   -1.55922497876056    1.22588806493050
S           2.69310124724554   -0.85471772401130    2.44403471360064
C           2.16467215477574   -2.80496484827777    0.53748537033572
C           1.20057286923526   -3.02931049281323   -0.44302174136220
O           1.42972214578778   -4.16152312855062   -1.09883185506642
C           2.55237674298897   -4.68873726680078   -0.54567720407820
C           3.04895937520734   -3.90362159925237    0.45885989793608
H          -2.01882583568750    0.67718390974057   -0.36180428761059
H          -0.07407987778103    0.84447680953815    1.39537663899479
H           2.89564804757506   -5.61932020966534   -0.95112864587865
H           3.91945901967426   -4.09282689155928    1.05199595753894
