21
 SCF done        -28.899283766018          0.000239066456
C           1.58031284532773    1.23133117887122   -0.00081708603225
S           2.77708240245014   -0.00103721804225   -0.00289893695183
C           1.56076007203708   -1.21820727102515   -0.03447369188319
C           0.30637294630300   -0.69681861807560   -0.04387486981233
C           0.31921936697400    0.72710513128102   -0.02602874096781
C          -0.92900357180649    1.56173807555004    0.03035096367280
C          -2.15412610064923    0.70082687394808   -0.33447961516254
C          -2.13307693241260   -0.63774231120833    0.39821057926114
C          -0.96442058610064   -1.48551874269163   -0.09812132292258
N          -1.00073882610217    2.18369084312996    1.34782238080315
H           1.87525661481876    2.26054660235999    0.02773658273419
H           1.84882808133708   -2.25069607634227   -0.04480974755897
H          -0.84785395817100    2.38754277188163   -0.68914888245251
H          -2.15517544354511    0.52063460626722   -1.41162844667929
H          -3.06365655930794    1.25480661381182   -0.08645069370701
H          -3.07193661864491   -1.16990478854613    0.23277655010938
H          -2.03229321985018   -0.46958812291686    1.47364670391268
H          -1.15222553197091   -1.78489981911654   -1.13473581562629
H          -0.86801770570896   -2.39814436026893    0.49405339718116
H          -1.01369948040114    1.47431015958998    2.07301061827131
H          -1.84756779457653    2.73599447154273    1.43260007381083
