# ORCA input file
# SCF done        -29.706118632843          0.000686692116
! B3LYP/G D3BJ Opt RIJCOSX def2-SVP def2/J
* xyz 0 1
   C        2.13318         0.73867        -0.05725
   C        2.17123        -0.57679        -0.28339
   C        0.93357        -1.43003        -0.34618
   C       -0.32530        -0.65938        -0.10948
   C       -1.57358        -1.19718        -0.09439
   S       -2.79221        -0.02097         0.20585
   C       -1.60291         1.21694         0.31306
   C       -0.34355         0.74168         0.12703
   C        0.90550         1.56053         0.16047
   C        3.45394        -1.23606        -0.48343
   C        3.64530        -2.52710        -0.72943
   H        3.06048         1.29654        -0.02433
   H        1.01446        -2.23079         0.39716
   H        0.88439        -1.91289        -1.32868
   H       -1.85698        -2.22048        -0.24217
   H       -1.90971         2.22539         0.50849
   H        0.98516         2.07972         1.12347
   H        0.85768         2.34398        -0.60628
   H        4.31412        -0.58102        -0.42147
   H        2.83845        -3.23449        -0.80636
   H        4.63514        -2.92793        -0.86598
*
