# ORCA input file
# SCF done        -31.541779362612          0.000962976797
! B3LYP/G D3BJ Opt RIJCOSX def2-SVP def2/J
* xyz 0 1
   C        1.61381         1.20860        -0.01693
   S        2.80261        -0.02252        -0.01292
   C        1.60201        -1.24218        -0.00693
   C        0.33665        -0.72414        -0.00719
   C        0.34352         0.70280        -0.01328
   C       -0.87247         1.51668        -0.02034
   O       -0.84830         2.72736        -0.05466
   C       -2.18900         0.76801         0.02988
   C       -2.19673        -0.76471         0.02336
   C       -0.88708        -1.52637        -0.00824
   O       -0.87437        -2.73754        -0.02904
   H        1.89450         2.24356        -0.02186
   H        1.87278        -2.27978        -0.00417
   H       -2.77406         1.14572        -0.81327
   H       -2.69668         1.13707         0.92587
   H       -2.76801        -1.12958        -0.83483
   H       -2.72657        -1.13581         0.90549
*
