17
 SCF done        -31.541779362612          0.000962976797
C           1.61380600560680    1.20860272944512   -0.01692565192377
S           2.80260967168741   -0.02252425191431   -0.01291726177490
C           1.60200546786500   -1.24218360326994   -0.00693067602920
C           0.33664672056586   -0.72414274122367   -0.00719162911756
C           0.34351882309398    0.70279522171839   -0.01328338751780
C          -0.87247205925379    1.51668151146615   -0.02034096654204
O          -0.84829852617527    2.72736296721360   -0.05465895990838
C          -2.18900245338088    0.76801492678775    0.02988300958831
C          -2.19672629682660   -0.76470832227726    0.02336381915959
C          -0.88707711053283   -1.52636931618356   -0.00823855373034
O          -0.87436702893955   -2.73754464165221   -0.02904422433394
H           1.89450026060289    2.24355981827875   -0.02185622630382
H           1.87277558290879   -2.27978215308690   -0.00416697057862
H          -2.77406327030204    1.14571998494017   -0.81326667875263
H          -2.69667856803294    1.13706747935126    0.92587284453609
H          -2.76800895762350   -1.12957693717506   -0.83483345971592
H          -2.72656826126333   -1.13581267241827    0.90549497294495
