# ORCA input file
# SCF done        -36.136369171962          0.000148441436
! B3LYP/G D3BJ Opt RIJCOSX def2-SVP def2/J
* xyz 0 1
   C       -0.00061        -1.41565         0.01105
   C        1.20283        -0.71802         0.00657
   C        1.20436         0.71825        -0.00502
   N        2.37862         1.40217        -0.00967
   C        3.47528         0.70835        -0.00311
   C        3.47376        -0.71292         0.00866
   N        2.37563        -1.40442         0.01332
   C        0.00240         1.41843        -0.01165
   C       -1.20103         0.72080        -0.00716
   C       -1.20256        -0.71548         0.00435
   N       -2.37683        -1.39940         0.00879
   C       -3.47348        -0.70559         0.00220
   C       -3.47197         0.71571        -0.00932
   N       -2.37384         1.40720        -0.01384
   H       -0.00176        -2.49368         0.01971
   H        4.40446         1.26285        -0.00710
   H        4.40176        -1.26939         0.01417
   H        0.00356         2.49646        -0.02030
   H       -4.40267        -1.26008         0.00599
   H       -4.39997         1.27216        -0.01470
*
