20
 SCF done        -36.136369171962          0.000148441436
C          -0.00061212458664   -1.41564786895780    0.01104934060006
C           1.20283084632759   -0.71801771381505    0.00656950696464
C           1.20435928671571    0.71825151233381   -0.00502145966144
N           2.37862148784902    1.40217290798920   -0.00967308356371
C           3.47527626110217    0.70835415884022   -0.00311091294010
C           3.47376312927823   -0.71292230250641    0.00865629484964
N           2.37563445928864   -1.40441990431199    0.01331822146465
C           0.00240498419866    1.41842550438453   -0.01165296986464
C          -1.20103062337574    0.72079731193102   -0.00715705640737
C          -1.20256001771667   -0.71547704388750    0.00435054867136
N          -2.37682951347274   -1.39939547787777    0.00879433559904
C          -3.47347920268250   -0.70558626605785    0.00219759664162
C          -3.47196571473069    0.71570682410600   -0.00931553107525
N          -2.37384089398926    1.40719645267338   -0.01383755212692
H          -0.00175768064562   -2.49367945557230    0.01970791093304
H           4.40446019463819    1.26285355147419   -0.00710027026568
H           4.40176440157281   -1.26938529894495    0.01417215783807
H           0.00355561103538    2.49645581089149   -0.02030337238199
H          -4.40266534761632   -1.26007729829665    0.00599177033648
H          -4.39996954319023    1.27216459560446   -0.01469547561151
