17
 SCF done        -32.618357596814          0.000708232150
C           0.19288775239388    1.13915950780105    0.15121371098607
S          -1.10264099361394    0.01514497792448    0.18206313919867
C          -0.01120882465908   -1.29169923607723    0.05290661716951
C           1.29668251156069   -0.89747794727532   -0.01049976279699
C           2.37721465841238   -1.91819458087881   -0.11100410213442
O           2.13259270903800   -3.09459170752337   -0.07022751336425
O           3.62694011115885   -1.47267828274567   -0.24474991471970
C           1.40311032289927    0.52654110144795    0.05263871072256
S           2.90827361944991    1.48288158286026    0.01373816597438
C           3.15521079438081    1.68801388270168    1.75770136000918
C           4.20033383511824    2.31994123964208    2.25675868892820
H           0.00247574692560    2.19254472808868    0.20985678282687
H          -0.36489711742975   -2.30332837752073    0.03043118480626
H           3.68202330932739   -0.49565072528698   -0.25936561304886
H           2.36858892796057    1.25701165795243    2.35605833318427
H           4.96438263637402    2.73956114733891    1.62591130591862
H           4.32059000070316    2.43682103155059    3.31912890633964
