# ORCA input file
# SCF done        -31.850166270968          0.000521733257
! B3LYP/G D3BJ Opt RIJCOSX def2-SVP def2/J
* xyz 0 1
   C       -1.37302        -1.34694         0.15006
   S       -2.66093        -0.23363         0.28936
   C       -1.60582         1.10912         0.20689
   C       -0.29379         0.72027         0.07669
   C       -0.15742        -0.71066         0.04389
   C        1.13189        -1.27060        -0.08651
   C        2.24317        -0.47119        -0.14967
   C        3.54271        -1.14567        -0.23088
   C        4.64295        -0.82394         0.43429
   C        2.10383         0.95834        -0.14966
   C        3.29650         1.85304        -0.31407
   C        0.86633         1.52130        -0.04230
   H       -1.57421        -2.39930         0.15686
   H       -2.00368         2.10259         0.25844
   H        1.23331        -2.34646        -0.10957
   H        3.54733        -2.03087        -0.85644
   H        4.68613         0.00773         1.11558
   H        5.54450        -1.40581         0.33920
   H        4.05495         1.38556        -0.93672
   H        3.74310         2.08027         0.65361
   H        2.99656         2.79509        -0.76803
   H        0.75238         2.59602        -0.05439
*
