# ORCA input file
# SCF done        -41.138813122684          0.000509069272
! B3LYP/G D3BJ Opt RIJCOSX def2-SVP def2/J
* xyz 0 1
   C        0.41827         1.05025        -0.26541
   S       -1.03403         0.14270        -0.43824
   C       -0.24271        -1.31863         0.02535
   C        1.10858        -1.08431         0.30208
   C        1.46141         0.28679         0.12655
   C        2.02135        -2.12328         0.71507
   O        1.78226        -3.29836         0.87045
   C        3.48146        -1.64399         0.98506
   F        4.05060        -1.10566        -0.10858
   F        3.54176        -0.70955         1.95089
   F        4.25630        -2.65364         1.37109
   C       -0.94956        -2.56559         0.09420
   C       -2.24297        -2.70668        -0.19394
   H        0.40773         2.10270        -0.46707
   H        2.44457         0.68878         0.28309
   H       -0.35522        -3.41406         0.40084
   H       -2.85032        -1.87150        -0.50549
   H       -2.72894        -3.66369        -0.12985
*
