14
 SCF done        -19.316691822201          0.000111771489
C           0.24040664420924    1.20295040645926   -0.03423832925383
C           0.94919080615475    0.00148958646684   -0.05232197859987
N           2.32655856548649   -0.00047518766587   -0.16065573025890
C           0.23715879911652   -1.19801057546461   -0.03193358841642
C          -1.14318720724896   -1.19146580343504    0.00211613872373
C          -1.84012582464919    0.00533066619406    0.01882374815031
C          -1.13994973133225    1.20020199756603   -0.00018057103926
H           0.78418165387193    2.13733954914072   -0.04859039520864
H           2.79636608229722    0.84591114144934    0.11726066881152
H           2.79408049561533   -0.84759453666525    0.11887968901263
H           0.77839869852210   -2.13389542148868   -0.04451503702291
H          -1.67965541292479   -2.12929035006066    0.01916792697866
H          -2.91921035557956    0.00682213615703    0.04865011440461
H          -1.67388321353884    2.13950639134684    0.01509734371837
