# ORCA input file
# SCF done        -33.462909131008          0.000373140548
! B3LYP/G D3BJ Opt RIJCOSX def2-SVP def2/J
* xyz 0 2
   C        1.51959         1.07384         0.22485
   C        1.71591        -0.28822         0.19076
   O        2.97038        -0.81953         0.14544
   C        3.06193        -2.19207         0.45641
   C        2.10715        -3.04539        -0.36383
   S        0.39186        -2.75487         0.18991
   C        0.49421        -1.00558         0.22573
   C       -0.60478        -0.17592         0.29675
   S       -0.14835         1.47840         0.27518
   N       -0.47627         1.88414        -1.55647
   C       -0.06208         3.21495        -1.91584
   H        2.28063         1.82258         0.28148
   H        2.86908        -2.35219         1.52730
   H        4.09855        -2.46219         0.23661
   H        2.30464        -4.10477        -0.21711
   H        2.17674        -2.79359        -1.42263
   H       -1.62364        -0.47117         0.43329
   H       -1.48042         1.77606        -1.67155
   H        1.00873         3.29937        -1.73030
   H       -0.58150         4.01122        -1.36572
   H       -0.24038         3.36219        -2.98285
*
