# ORCA input file
# SCF done        -29.440094448127          0.000775844758
! B3LYP/G D3BJ Opt RIJCOSX def2-SVP def2/J
* xyz 0 1
   C        1.25594        -1.27675        -0.00299
   S        2.55944        -0.15307         0.00039
   C        1.47570         1.19695         0.00381
   C        0.19493         0.77947         0.00511
   C        0.05174        -0.63712         0.00131
   C       -1.32029        -1.10060         0.00256
   C       -2.23196        -0.13424         0.00693
   S       -1.45017         1.49110         0.01041
   O       -1.71296         2.18795        -1.21658
   O       -1.70812         2.18011         1.24283
   H        1.45919        -2.32894        -0.00649
   H        1.86474         2.19458         0.00587
   H       -1.54177        -2.15724        -0.00021
   H       -3.29892        -0.23146         0.00847
*
