# ORCA input file
# SCF done        -37.133957950465          0.000315344274
! B3LYP/G D3BJ Opt RIJCOSX def2-SVP def2/J
* xyz 0 1
   C       -1.48603         0.99080        -0.34717
   S       -2.52275        -0.33231        -0.59169
   C       -1.23614        -1.48122        -0.40851
   C       -0.02281        -0.82863        -0.16724
   C       -0.18150         0.60713        -0.13950
   C        0.92798         1.47746         0.10024
   C        0.74440         2.92139         0.09355
   C        1.53428         3.80037         0.70027
   C        2.14988         0.89160         0.30300
   C        2.31125        -0.50254         0.26714
   C        1.27939        -1.37317         0.03556
   C        1.57062        -2.84182        -0.00325
   C       -1.56039        -2.87640        -0.50729
   C       -2.75427        -3.35330        -0.86119
   H       -1.89791         1.97944        -0.36330
   H       -0.11538         3.28226        -0.45518
   H        2.38700         3.50190         1.28617
   H        1.34464         4.85847         0.64404
   H        3.02203         1.50616         0.46469
   H        3.30504        -0.89983         0.41961
   H        2.63895        -3.00974         0.11561
   H        1.26167        -3.27451        -0.95381
   H        1.05716        -3.36180         0.80511
   H       -0.77552        -3.57446        -0.26990
   H       -3.57631        -2.70426        -1.11438
   H       -2.94243        -4.41095        -0.91069
*
