26
 SCF done        -37.133957950465          0.000315344274
C          -1.48602563683173    0.99080406921485   -0.34716660651720
S          -2.52275087732106   -0.33231317220397   -0.59168885601454
C          -1.23613744459146   -1.48121984871461   -0.40851445195461
C          -0.02280924645699   -0.82863027861521   -0.16724236154505
C          -0.18150341566345    0.60713055985788   -0.13949958190709
C           0.92797970228210    1.47745838702866    0.10023563571644
C           0.74440334532940    2.92139002440194    0.09354646567683
C           1.53428422298756    3.80037018649317    0.70026630444724
C           2.14987570917533    0.89159735746562    0.30299624090807
C           2.31125235698739   -0.50254278104638    0.26713946154309
C           1.27938580318691   -1.37316684389188    0.03556350698812
C           1.57061925959407   -2.84181738017017   -0.00324811491677
C          -1.56039147145409   -2.87640224964085   -0.50729098227538
C          -2.75427248935870   -3.35329827262912   -0.86118961334570
H          -1.89790872355160    1.97944320348933   -0.36330228621143
H          -0.11537973254589    3.28226296921428   -0.45518107405260
H           2.38699642955982    3.50189507539827    1.28616928163961
H           1.34464383702178    4.85847233504052    0.64404442006835
H           3.02202717515175    1.50616343631288    0.46468682736621
H           3.30504075055581   -0.89982915309483    0.41961172072988
H           2.63895278629466   -3.00973767914521    0.11561317541973
H           1.26166799801221   -3.27450727386483   -0.95381179023614
H           1.05715706940060   -3.36179959051332    0.80510871400373
H          -0.77551699449092   -3.57445937502816   -0.26989977260143
H          -3.57631037738014   -2.70426423075536   -1.11437883797154
H          -2.94243003589349   -4.41094947460325   -0.91068742495761
