18
 SCF done        -45.182793412715          0.000254347957
C           0.00416159848135    1.40700113841367   -0.01471992357929
C           1.18839265100677    0.68277240711769   -0.01112277438671
C           2.53464167154719    1.29962919280875   -0.01694718943255
O           2.80270618919423    2.46002381912300   -0.02592352726436
S           3.76551368164245   -0.01192691061983   -0.00965260189477
C           2.53718512559241   -1.32594996180534    0.00156851420216
O           2.80760887251321   -2.48579174770174    0.00925191916597
C           1.18975569581327   -0.71170498097133   -0.00147873794062
C           0.00692394811900   -1.43820641964524    0.00471125623484
C          -1.17731588400154   -0.71398415195136    0.00115035627160
C          -1.17866035843050    0.68049473268705   -0.00825193239247
C          -2.52610625239046    1.29475979538324   -0.01052518960901
O          -2.79641980848391    2.45464712952601   -0.01778067245457
S          -3.75442728213951   -0.01915677520683   -0.00049380741384
C          -2.52354853609162   -1.33082574481805    0.00681119844003
O          -2.79172663717595   -2.49118768748408    0.01459090926157
H           0.00311399531374    2.48611746097439   -0.02207750552904
H           0.00797132948986   -2.51732129583001    0.01208970832104
