# ORCA input file
# SCF done        -45.182793412715          0.000254347957
! B3LYP/G D3BJ Opt RIJCOSX def2-SVP def2/J
* xyz 0 1
   C        0.00416         1.40700        -0.01472
   C        1.18839         0.68277        -0.01112
   C        2.53464         1.29963        -0.01695
   O        2.80271         2.46002        -0.02592
   S        3.76551        -0.01193        -0.00965
   C        2.53719        -1.32595         0.00157
   O        2.80761        -2.48579         0.00925
   C        1.18976        -0.71170        -0.00148
   C        0.00692        -1.43821         0.00471
   C       -1.17732        -0.71398         0.00115
   C       -1.17866         0.68049        -0.00825
   C       -2.52611         1.29476        -0.01053
   O       -2.79642         2.45465        -0.01778
   S       -3.75443        -0.01916        -0.00049
   C       -2.52355        -1.33083         0.00681
   O       -2.79173        -2.49119         0.01459
   H        0.00311         2.48612        -0.02208
   H        0.00797        -2.51732         0.01209
*
