13
 SCF done        -31.685458500059          0.000275118391
C          -1.70082922327557   -1.22385407984655    0.17280486526725
S          -2.89154093614656    0.00159957416036    0.25892870171605
C          -1.70058690587192    1.22455017671750    0.14557255242709
C          -0.44031201156768    0.70766513342285    0.04677456619540
C          -0.44043415471211   -0.70943733688937    0.06188714430162
S           0.96190294908368   -1.76572581526876   -0.05706783711478
C           2.40722697819178   -0.76326064907910   -0.22179437585651
O           3.44969782861749   -1.34002476420600   -0.36100731365168
C           2.41273287996464    0.75584637212386   -0.17997932812514
O           3.46430367199572    1.33040891813212   -0.23488804151888
S           0.96459078359275    1.76119822779363   -0.06652547658827
H          -1.97509651443182   -2.25828701494680    0.20624380744458
H          -1.97443534544040    2.25956125788626    0.15771073550326
