21
 SCF done        -31.272277057556          0.000633255922
C          -1.56823216970071    1.20544233882852   -0.01630743608820
C          -2.45897579845844    0.06928754208833    0.06616484025064
C          -3.81035589475479    0.14554338106918    0.04179768177310
C          -1.63605087331101   -1.11766547938970    0.19922185944902
C          -0.28061829800590   -0.69227314358941    0.14977011156330
C          -0.28207200633682    0.77399652037108    0.03592310431370
C           0.92595098538921    1.52659070643674   -0.01891113274377
C           2.14573899314688    0.96553176122652   -0.01450768700599
S           2.44736949693285   -0.74613568288431    0.02204189690478
C           0.86750382708939   -1.42505900842869    0.11282559494851
C          -2.16370804542175   -2.42960323334074    0.36004300807689
C          -1.54710805935760   -3.50656800942282    0.86758000831259
H          -1.89979195448366    2.22334155289358   -0.10673187837330
H          -4.30392250548443    1.09734491297530   -0.04861798911929
H          -4.44127039813232   -0.72261943476801    0.10754645346021
H           0.84539285412097    2.60422628912517   -0.06522074480204
H           3.05651722872237    1.53967621111240   -0.05037680258780
H           0.88204635051201   -2.50083320468257    0.10413991726346
H          -3.20003979105744   -2.53969559203475    0.06290794382113
H          -0.55023005382890   -3.47310567898865    1.26705682478212
H          -2.05460388757998   -4.45270274859714    0.93683442580091
