# ORCA input file
# SCF done        -24.099453296064          0.000416979556
! B3LYP/G D3BJ Opt RIJCOSX def2-SVP def2/J
* xyz 0 1
   C       -1.21486        -1.23661         0.00345
   S       -2.39837         0.03499         0.00778
   C       -1.19597         1.28871         0.00068
   C        0.03011         0.72855        -0.00270
   C        0.01947        -0.69488        -0.00114
   O        1.30315        -1.15488        -0.00437
   C        2.12010         0.00116        -0.01242
   O        1.32054         1.16930        -0.00691
   H       -1.52072        -2.26080         0.00553
   H       -1.48642         2.31738         0.00051
   H        2.75022        -0.00454        -0.91577
   H        2.76577        -0.00269         0.87958
*
