12
 SCF done        -24.099453296064          0.000416979556
C          -1.21485698734979   -1.23661354393354    0.00344526483228
S          -2.39837170332062    0.03498678089585    0.00777724879909
C          -1.19596867431081    1.28871273408513    0.00067868851479
C           0.03010995684820    0.72855063891923   -0.00270339005082
C           0.01947028804237   -0.69487523053311   -0.00114269103769
O           1.30315393448093   -1.15487672990804   -0.00436515823328
C           2.12009933077232    0.00116313778695   -0.01241808525198
O           1.32053636555138    1.16930206439614   -0.00691356474230
H          -1.52072013005816   -2.26080153022534    0.00552686387447
H          -1.48641970271946    2.31738073839371    0.00051099788684
H           2.75022262511446   -0.00454125698324   -0.91576944321541
H           2.76577469694916   -0.00268780289374    0.87958326862402
