# ORCA input file
# SCF done        -21.548145652082          0.000768127798
! B3LYP/G D3BJ Opt RIJCOSX def2-SVP def2/J
* xyz 0 1
   C       -1.78507        -0.94096         0.00545
   S       -1.56318         0.78280         0.00895
   C        0.15136         0.56960         0.00653
   C        0.48704        -0.78614         0.00473
   C       -0.62833        -1.65171         0.00499
   N        1.84530        -0.87186         0.00355
   C        2.35927         0.39499         0.00469
   C        1.34368         1.31599         0.00584
   H       -2.78730        -1.32134         0.00458
   H       -0.58141        -2.72591         0.00397
   H        2.38524        -1.72024         0.00219
   H        3.41935         0.55736         0.00469
   H        1.44473         2.38216         0.00689
*
