# ORCA input file
# SCF done        -26.574047468783          0.000562966171
! B3LYP/G D3BJ Opt RIJCOSX def2-SVP def2/J
* xyz 0 1
   C       -1.55177        -1.21145         0.15367
   S       -2.71544         0.03399         0.24252
   C       -1.52155         1.24981         0.16330
   C       -0.25513         0.72114         0.07317
   C       -0.26768        -0.72129         0.06745
   C        0.96349        -1.43339        -0.02081
   C        1.00482        -2.93272        -0.02980
   C        2.11750        -0.70775        -0.09863
   C        2.12861         0.70674        -0.09368
   C        0.97435         1.41888        -0.00955
   H       -1.88703        -2.22874         0.17133
   H       -1.80668         2.28246         0.18768
   H        0.01210        -3.36187         0.05367
   H        1.60979        -3.29668         0.79990
   H        1.45928        -3.29034        -0.95317
   H        3.06253        -1.22794        -0.16759
   H        3.07912         1.21558        -0.15932
   H        0.96975         2.49849        -0.00483
*
