# ORCA input file
# SCF done        -35.020971715070          0.000601985791
! B3LYP/G D3BJ Opt RIJCOSX def2-SVP def2/J
* xyz 0 1
   C       -1.46195         1.11156        -0.24614
   S       -2.54998        -0.18978        -0.39423
   C       -1.29652        -1.36654        -0.17339
   C       -0.05640        -0.75307        -0.04580
   C       -0.16672         0.68636        -0.06556
   C        0.98212         1.51547         0.08561
   C        0.83286         3.00435         0.08678
   C        2.19040         0.90069         0.20894
   C        2.31512        -0.50381         0.13829
   C        1.24453        -1.33991        -0.00130
   C        1.46836        -2.81148        -0.16641
   C       -1.73289        -2.74478        -0.07007
   C       -1.38971        -3.58147         0.90198
   H       -1.83328         2.11515        -0.29228
   H        0.15761         3.32091         0.88112
   H        0.41731         3.34549        -0.86113
   H        1.79658         3.48419         0.23602
   H        3.08714         1.49200         0.32805
   H        3.30959        -0.92608         0.17507
   H        2.48496        -2.99359        -0.51024
   H        0.77011        -3.23083        -0.88696
   H        1.33437        -3.34018         0.77669
   H       -2.46859        -3.04930        -0.80589
   H       -0.71927        -3.28864         1.69127
   H       -1.77635        -4.58494         0.94172
*
