30
 SCF done        -45.141310990961          0.000523191647
C           0.53047423731436   -1.27289164514810    0.51293140934780
C           1.05046810707317   -0.03734171184470    0.36116111683893
C          -0.03465741158004    0.91909492578451    0.37486439591593
C          -1.26499674337860    0.11454364643562    0.55735071480985
C          -0.91337067683468   -1.18709364853162    0.64220280782218
O          -2.48422622703647    0.69815486771229    0.63092957766076
C          -3.56857167816408   -0.17007134218544    0.85379245205933
C           0.04061987497347    2.27071286498724    0.24706125712784
C          -1.04067106980179    3.21567929107731    0.20942812154301
C          -0.53163775123889    4.47144866120621    0.04766898250006
C           0.92805325186060    4.37854672466846   -0.00950928979532
C           1.27528376619643    3.08124373353551    0.10465162455495
O           2.49739704693570    2.50388427363063    0.11954016176255
C           3.59555492245519    3.37930873789065    0.03198473867110
C          -1.30590692952555    5.67769033110752   -0.05360372545897
C          -0.81362382524852    6.90391994541569   -0.22908814252381
H           1.07212825621179   -2.20157199839353    0.53823137464145
H           2.07907649513347    0.23265872510365    0.23726528877901
H          -1.55259949324924   -2.03854737153986    0.77973633364793
H          -4.45773277667308    0.45643845045877    0.90290368343986
H          -3.45025261476174   -0.71447933168634    1.79636159915468
H          -3.67214986195682   -0.89113249233384    0.03643259531836
H          -2.07414146994203    2.94375935338827    0.28409418195373
H           1.57962686493757    5.22287613941907   -0.12228215485811
H           3.59693220291250    4.09328890079104    0.86199356303428
H           3.58717659198124    3.93064023507619   -0.91382855391165
H           4.48751116844673    2.75717294099744    0.08394324099563
H          -2.37749635965842    5.53822111191101    0.02202491141045
H           0.24300758424185    7.09191574412799   -0.31122500204010
H          -1.45606548162302    7.76498993693883   -0.29874726440115
