17
 SCF done        -26.841577047968          0.000272467565
C           0.97819432262641    1.40271119236142   -0.03287237846775
C          -0.25069228676885    0.70409799837689    0.06454291410855
C          -1.52171387064577    1.22401947470971    0.13690561872902
S          -2.71047059760633    0.00258169203212    0.25227340170428
C          -1.53616139699393   -1.23702528861309    0.20332776011295
C          -0.25969060588751   -0.73509313903742    0.10234528897382
C           0.97814885085750   -1.44775404278917    0.03177799429819
N           0.98287456792924   -2.82493262633262    0.12979142427958
C           2.13823280632492   -0.72260212078010   -0.06082045753089
C           2.13424256603484    0.68784872051567   -0.08853410970503
H           0.97359781905359    2.48109679942296   -0.06003815116038
H          -1.81623618840736    2.25400511647018    0.13088524682566
H          -1.85913492680525   -2.25720832999216    0.26482978911790
H           0.14448878732079   -3.29986761412323   -0.16063437664905
H           1.83697158173953   -3.27774012195692   -0.15481516695162
H           3.08339955215116   -1.24415705218645   -0.11365625416786
H           3.08319901907701    1.19859934192218   -0.16425854351738
