# ORCA input file
# SCF done        -23.678344650866          0.000395311880
! B3LYP/G D3BJ Opt RIJCOSX def2-SVP def2/J
* xyz 0 1
   C       -1.12719        -0.07488         0.00229
   O       -0.35641         1.01655        -0.00220
   C        0.91943         0.61958        -0.00502
   C        1.00149        -0.74808        -0.00243
   C       -0.36001        -1.21006         0.00247
   C       -0.79882        -2.54492         0.00663
   N       -1.15379        -3.63350         0.00990
   C        2.16216        -1.54010        -0.00404
   N        3.10518        -2.18956        -0.00497
   H       -2.19184         0.05235         0.00510
   H        1.68683         1.36841        -0.00875
*
