11
 SCF done        -23.678344650866          0.000395311880
C          -1.12719009561714   -0.07488031233096    0.00228947492344
O          -0.35640796043573    1.01654682049542   -0.00220403805028
C           0.91942666304821    0.61958046339160   -0.00501942317780
C           1.00149248133219   -0.74807936132846   -0.00242652604627
C          -0.36001491308088   -1.21006475208252    0.00246785037138
C          -0.79882104983756   -2.54492487810047    0.00662814235934
N          -1.15379472713210   -3.63349595202587    0.00989525650016
C           2.16215985542264   -1.54009688864791   -0.00404058254671
N           3.10517767067994   -2.18955609120965   -0.00497389662408
H          -2.19183710123153    0.05235250642104    0.00509886927530
H           1.68682917685195    1.36840844541777   -0.00874512698450
