# ORCA input file
# SCF done        -26.822500318593          0.000969297552
! B3LYP/G D3BJ Opt RIJCOSX def2-SVP def2/J
* xyz 0 1
   C       -1.26699        -1.34282         0.11949
   S       -2.43850        -0.08915         0.04168
   C       -1.24168         1.18160        -0.09969
   C        0.00675         0.59879        -0.08231
   C       -0.00036        -0.83130         0.04228
   C        1.36564        -1.24786         0.04395
   C        2.11200        -0.11983        -0.07361
   N        1.31087         0.99602        -0.14983
   C       -1.67523         2.54251        -0.20211
   C       -0.89263         3.61527        -0.31783
   H       -1.58727        -2.36010         0.21591
   H        1.72637        -2.25309         0.12283
   H        3.18041        -0.01660        -0.10946
   H        1.64277         1.93857        -0.24359
   H       -2.74993         2.67201        -0.17806
   H        0.18083         3.55120        -0.34915
   H       -1.31339         4.60271        -0.38976
*
