# ORCA input file
# SCF done        -33.659605914813          0.000906208981
! B3LYP/G D3BJ Opt RIJCOSX def2-SVP def2/J
* xyz 0 1
   C       -1.23519         1.32515        -0.11512
   S       -2.46294         0.12592        -0.05556
   C       -1.30930        -1.18227         0.08519
   C       -0.03056        -0.66712         0.08269
   C       -0.00263         0.75610        -0.03246
   C        1.37532         1.25918        -0.03558
   O        1.74861         2.40102        -0.11798
   C        2.25947         0.02736         0.08641
   C        1.33739        -1.18280         0.16811
   O        1.71028        -2.32513         0.28305
   C       -1.82518        -2.52144         0.17177
   C       -1.08337        -3.62127         0.28866
   H       -1.49265         2.36150        -0.20668
   H        2.89679         0.08882         0.97104
   H        2.92937        -0.05678        -0.77198
   H       -2.90595        -2.58759         0.13397
   H       -0.00837        -3.58114         0.33083
   H       -1.54312        -4.59266         0.34552
*
