18
 SCF done        -33.659605914813          0.000906208981
C          -1.23519350742151    1.32514743860898   -0.11511665614082
S          -2.46294031152153    0.12591689130999   -0.05556026195647
C          -1.30929533012209   -1.18226979454598    0.08518943327017
C          -0.03055595770110   -0.66712161813604    0.08269330189257
C          -0.00263453689962    0.75610115309501   -0.03245660491532
C           1.37531698078990    1.25918294098888   -0.03557838429150
O           1.74861322828792    2.40101690490410   -0.11798277508602
C           2.25946820714538    0.02735926658529    0.08640830114061
C           1.33738607142701   -1.18279576859344    0.16811106578956
O           1.71028321307447   -2.32512804109875    0.28305089033991
C          -1.82518019498524   -2.52144396982850    0.17177029868091
C          -1.08337289400481   -3.62127222988121    0.28866426809318
H          -1.49264624361981    2.36150022456571   -0.20667887728347
H           2.89679190252153    0.08881912021597    0.97104049925771
H           2.92937229387212   -0.05677586134846   -0.77197940347750
H          -2.90595028231928   -2.58758682360696    0.13396613467844
H          -0.00837202101884   -3.58113796476162    0.33082657224101
H          -1.54312061750465   -4.59266186847231    0.34552219776736
