# ORCA input file
# SCF done        -46.273679385794          0.000658666927
! B3LYP/G D3BJ Opt RIJCOSX def2-SVP def2/J
* xyz 0 1
   C        1.09231        -1.50536        -0.48608
   C        2.34987        -1.01287        -0.28922
   C        2.56042         0.34533        -0.01170
   C        1.49567         1.20964         0.07123
   O        1.59271         2.54294         0.32660
   C        2.87091         3.11825         0.49302
   C        2.67855         4.61174         0.70903
   C        0.16761         0.72479        -0.11879
   C       -0.02288        -0.64694        -0.40515
   C       -1.34995        -1.12841        -0.60839
   O       -1.44641        -2.45493        -0.89889
   C       -2.71765        -3.00612        -1.16763
   C       -2.51810        -4.46892        -1.53385
   C       -2.41588        -0.26712        -0.50820
   C       -2.20633         1.08799        -0.21607
   C       -0.94774         1.58179        -0.02885
   H        0.92644        -2.54827        -0.70195
   H        3.20741        -1.66746        -0.34489
   H        3.57191         0.69094         0.13429
   H        3.48471         2.94147        -0.40163
   H        3.37799         2.67105         1.35992
   H        2.16642         5.04550        -0.14569
   H        3.64315         5.09624         0.83133
   H        2.07668         4.78370         1.59724
   H       -3.19387        -2.46951        -2.00053
   H       -3.36298        -2.92102        -0.28165
   H       -1.86916        -4.54685        -2.40199
   H       -3.47599        -4.92775        -1.76153
   H       -2.05489        -4.99946        -0.70658
   H       -3.42764        -0.61335        -0.65060
   H       -3.06483         1.73951        -0.14291
   H       -0.78203         2.62376         0.19133
*
