32
 SCF done        -46.273679385794          0.000658666927
C           1.09230962179818   -1.50535636867374   -0.48607698990961
C           2.34987481704133   -1.01287240590611   -0.28921800966124
C           2.56042113368957    0.34532779885210   -0.01170076873981
C           1.49567408822350    1.20964106336179    0.07123048019659
O           1.59271021975672    2.54293880249250    0.32660076671228
C           2.87090713573928    3.11825379639971    0.49302285798116
C           2.67855079132579    4.61174150074373    0.70902525237443
C           0.16761430825882    0.72478518106320   -0.11879276947488
C          -0.02287740665117   -0.64693564142234   -0.40515223640263
C          -1.34994785906856   -1.12840698218064   -0.60839000754555
O          -1.44641058209154   -2.45493052208926   -0.89888887295169
C          -2.71765348794620   -3.00611561170218   -1.16763100084469
C          -2.51810236418458   -4.46891855231662   -1.53384804597921
C          -2.41588355001777   -0.26712175168473   -0.50820316372181
C          -2.20633187019908    1.08798700309962   -0.21606901241707
C          -0.94774249246880    1.58178768948617   -0.02884553434491
H           0.92644300432286   -2.54827043379688   -0.70195456950191
H           3.20740758772086   -1.66745501448515   -0.34488693835258
H           3.57191343458344    0.69093759018136    0.13428979445371
H           3.48471049372727    2.94146507916675   -0.40163155191599
H           3.37798714100871    2.67104948258761    1.35991932918086
H           2.16642195763765    5.04550296442198   -0.14568764674779
H           3.64315188881435    5.09624300274732    0.83132890344467
H           2.07668345707123    4.78370363851562    1.59724230842616
H          -3.19387437473321   -2.46951496636839   -2.00052596641194
H          -3.36298401520008   -2.92102218343101   -0.28164897386827
H          -1.86916352373200   -4.54684568137658   -2.40198505201341
H          -3.47599397123215   -4.92774823697298   -1.76153124820155
H          -2.05488891270169   -4.99945988797115   -0.70657758123882
H          -3.42764180603681   -0.61335453604415   -0.65059978426076
H          -3.06482597043782    1.73950997911761   -0.14290800979857
H          -0.78202889401837    2.62376420418456    0.19133404153492
