13
 SCF done        -20.224577863971          0.000517671055
C           1.37016056557710   -0.73861890907109    0.36423741337021
C           1.59436328711920    0.65438879832597    0.33554454521228
C           0.67521786953578    1.31679183652915   -0.42445514650931
S           0.63984647936693    3.04411284034862   -0.69667927130378
C          -0.81752723250182    3.19959168918170   -1.76629149552012
S          -0.48467997930308    0.22399766463934   -1.11603275084255
C           0.29261545002846   -1.11739546293516   -0.36565663544065
H           1.99037800108839   -1.42743846338321    0.90950424050156
H           2.39501587937419    1.15279240694495    0.85024277180666
H          -0.90994639598320    4.25409142840767   -2.00521646613544
H          -1.69826503055611    2.85457708395239   -1.23206971616914
H          -0.66722637974484    2.61893580554390   -2.67195400200502
H          -0.10671251400110   -2.09928671848457   -0.52060348696443
