# ORCA input file
# SCF done        -20.224577863971          0.000517671055
! B3LYP/G D3BJ Opt RIJCOSX def2-SVP def2/J
* xyz 0 1
   C        1.37016        -0.73862         0.36424
   C        1.59436         0.65439         0.33554
   C        0.67522         1.31679        -0.42446
   S        0.63985         3.04411        -0.69668
   C       -0.81753         3.19959        -1.76629
   S       -0.48468         0.22400        -1.11603
   C        0.29262        -1.11740        -0.36566
   H        1.99038        -1.42744         0.90950
   H        2.39502         1.15279         0.85024
   H       -0.90995         4.25409        -2.00522
   H       -1.69827         2.85458        -1.23207
   H       -0.66723         2.61894        -2.67195
   H       -0.10671        -2.09929        -0.52060
*
