19
 SCF done        -34.174336249885          0.000272823890
C           3.18900826760561   -0.27590865072545    0.05896511491148
S           1.98407046435641   -1.50721844489505    0.23648123086876
C           0.73639364748500   -0.32333894790385    0.09810208658538
C           1.26948342077234    0.95151754698143   -0.07593297550976
C           2.67740929105264    0.97215610519434   -0.09753564164854
S           0.04607332731382    2.18101388449642   -0.22059811711860
C          -1.19021063020298    0.96584771284880   -0.04512000170937
C          -2.59098046720909    1.00655692390230   -0.03203331119349
C          -3.14238244901741   -0.23809296464309    0.13808238393816
S          -1.91891507735135   -1.48847210752583    0.28600129370066
C          -0.66731441460158   -0.31612134160175    0.11582542664595
C          -4.54219073887487   -0.55413742028232    0.19805354000993
C          -5.04175962841520   -1.77529799737946    0.36628470679709
H           4.22093338406131   -0.56428886272972    0.08283502187360
H           3.26883127143973    1.86009084413038   -0.22176930230850
H          -3.17068847607406    1.90465965042903   -0.14195592007431
H          -5.20020860514719    0.29902051335257    0.09376065475637
H          -4.40034186448874   -2.63507364592854    0.47111099202717
H          -6.10169072270439   -1.95202279772016    0.40404281744804
