# ORCA input file
# SCF done        -49.876759222395          0.000533283581
! B3LYP/G D3BJ Opt RIJCOSX def2-SVP def2/J
* xyz 0 1
   C       -2.40397         1.46744        -0.13009
   S       -3.69927         0.35440        -0.17740
   C       -1.18331         0.85834        -0.08688
   C        0.08705         1.60724        -0.04019
   O        0.14608         2.82383        -0.03445
   C        1.24059         0.72212        -0.00145
   C        2.58315         1.02572         0.04908
   N        3.28833        -0.13017         0.08041
   C        4.72591        -0.22711         0.06971
   C        5.26411        -0.26109        -1.35957
   C        2.43447        -1.18085         0.04053
   C        1.14420        -0.70072        -0.00687
   C       -0.10558        -1.44926        -0.05127
   O       -0.15060        -2.66880        -0.05453
   C       -1.28678        -0.56957        -0.09154
   C       -2.59911        -1.00006        -0.13864
   C       -3.07901        -2.35300        -0.15512
   C       -4.36404        -2.69411        -0.20618
   H       -2.59221         2.52320        -0.13620
   H        3.06103         1.98503         0.07125
   H        5.01683        -1.13749         0.60031
   H        5.13614         0.63449         0.60293
   H        4.86849        -1.12221        -1.89276
   H        6.34849        -0.32547        -1.34717
   H        4.97327         0.63975        -1.89461
   H        2.77936        -2.19573         0.05507
   H       -2.30045        -3.10283        -0.12130
   H       -5.14717        -1.95296        -0.23728
   H       -4.67136        -3.72467        -0.21586
*
