29
 SCF done        -49.876759222395          0.000533283581
C          -2.40397430114428    1.46743663541496   -0.13009041796061
S          -3.69926554718203    0.35439687240719   -0.17740094607371
C          -1.18330645140991    0.85834399143428   -0.08687679384862
C           0.08705145043468    1.60724215280544   -0.04019324498185
O           0.14608488639518    2.82382851184971   -0.03445242510000
C           1.24058831918523    0.72212423290002   -0.00144884741326
C           2.58315247416318    1.02572248128100    0.04908010558996
N           3.28832643965830   -0.13016809591541    0.08040754071359
C           4.72591344611270   -0.22710740496565    0.06970816104289
C           5.26411339527525   -0.26109438455276   -1.35956643797983
C           2.43447137049141   -1.18085031362334    0.04052649601859
C           1.14420433937647   -0.70072153786198   -0.00686925355662
C          -0.10558189920436   -1.44926188641750   -0.05127295845323
O          -0.15059932921484   -2.66879502730079   -0.05453305717935
C          -1.28677678375606   -0.56957148091672   -0.09154173353732
C          -2.59911125706493   -1.00006409182424   -0.13864328252365
C          -3.07900754552013   -2.35300114982985   -0.15511892497370
C          -4.36403937672836   -2.69411157608931   -0.20617843087777
H          -2.59220918524942    2.52320262680505   -0.13620048861631
H           3.06103077802766    1.98503220015988    0.07124769644961
H           5.01682709608150   -1.13749325055716    0.60031482780176
H           5.13613505700302    0.63448619698340    0.60293212164417
H           4.86848865233454   -1.12221003226968   -1.89276415987227
H           6.34848685559807   -0.32547266681061   -1.34717044586883
H           4.97326663674304    0.63975249619160   -1.89461032509401
H           2.77936267065636   -2.19573185798005    0.05507164492745
H          -2.30044655561139   -3.10283115078366   -0.12129981168873
H          -5.14716660875469   -1.95295976356682   -0.23728192383484
H          -4.67135902669634   -3.72467272696746   -0.21586468475354
