23
 SCF done        -34.609690604235          0.000874506204
C          -0.94102620972363   -0.03935557570792   -1.00456584789406
S          -1.67001685165219   -1.56459473357396   -0.68515523771435
C          -0.46492658902967   -1.93607697054533    0.47835521969077
C           0.46203553103662   -0.94611281331922    0.60947195786733
C           0.18281954970318    0.16394975335266   -0.26337866625219
O           0.99543042516044    1.25674819756922   -0.29963399525220
C           0.64060617929123    2.29134993950367   -1.19586706358511
C           1.69936898740561    3.37738521267224   -1.09609954042489
O           1.50114767837006   -1.10323030202343    1.46767094836661
C           2.23699664913004    0.04035769824981    1.87488383694398
C           3.15226466814794   -0.39230691912234    3.00929465144484
H          -1.39082824791751    0.60456818600649   -1.73053268133426
H          -0.48371220122936   -2.86951352982756    1.00100676449609
H          -0.34802947943361    2.69051576196547   -0.92954906192258
H           0.59128065330096    1.89621783406002   -2.22000087524908
H           2.66978605658355    2.97690390540324   -1.37607156757628
H           1.75786577969875    3.74761292860359   -0.07626228125417
H           1.44809080699255    4.19851493334915   -1.76056710961429
H           1.55205911783459    0.82738743273087    2.21352186950026
H           2.82470804750990    0.42995071489009    1.03570209962558
H           2.56378264758426   -0.77913267557012    3.83697773518099
H           3.73987980030134    0.45459761114077    3.35262131723330
H           3.82110700093489   -1.17665658980754    2.66581752772376
