# ORCA input file
# SCF done        -34.609690604235          0.000874506204
! B3LYP/G D3BJ Opt RIJCOSX def2-SVP def2/J
* xyz 0 1
   C       -0.94103        -0.03936        -1.00457
   S       -1.67002        -1.56459        -0.68516
   C       -0.46493        -1.93608         0.47836
   C        0.46204        -0.94611         0.60947
   C        0.18282         0.16395        -0.26338
   O        0.99543         1.25675        -0.29963
   C        0.64061         2.29135        -1.19587
   C        1.69937         3.37739        -1.09610
   O        1.50115        -1.10323         1.46767
   C        2.23700         0.04036         1.87488
   C        3.15226        -0.39231         3.00929
   H       -1.39083         0.60457        -1.73053
   H       -0.48371        -2.86951         1.00101
   H       -0.34803         2.69052        -0.92955
   H        0.59128         1.89622        -2.22000
   H        2.66979         2.97690        -1.37607
   H        1.75787         3.74761        -0.07626
   H        1.44809         4.19851        -1.76057
   H        1.55206         0.82739         2.21352
   H        2.82471         0.42995         1.03570
   H        2.56378        -0.77913         3.83698
   H        3.73988         0.45460         3.35262
   H        3.82111        -1.17666         2.66582
*
