# ORCA input file
# SCF done        -36.118404474081          0.000994105701
! B3LYP/G D3BJ Opt RIJCOSX def2-SVP def2/J
* xyz 0 1
   C       -1.42453         1.34702        -0.17791
   S       -2.64415         0.15303        -0.07545
   C       -1.50474        -1.14657         0.08507
   C       -0.21352        -0.64184         0.05388
   C       -0.17522         0.78895        -0.09226
   N        1.00373         1.47006        -0.10547
   C        2.08673         0.75594        -0.01197
   N        3.30053         1.39829        -0.05770
   C        2.05235        -0.69659         0.06518
   N        3.23380        -1.39266         0.15534
   N        0.93575        -1.36458         0.11375
   C       -1.97802        -2.49308         0.22284
   C       -1.19160        -3.55695         0.37234
   H       -1.68214         2.38025        -0.28756
   H        3.21708         2.40275         0.00508
   H        4.03736         1.00332         0.50553
   H        4.01153        -1.02220        -0.36801
   H        3.11428        -2.39223         0.07837
   H       -3.05513        -2.60205         0.20315
   H       -0.12190        -3.45039         0.39320
   H       -1.60185        -4.54654         0.47485
*
