17
 SCF done        -27.540980114863          0.000882088070
C           0.97714004152090   -0.23457144603949    0.17273316720036
C           2.17293738091823   -0.11251912951011    0.12959880980619
C           3.56069061692758    0.03997309696015    0.07914505273648
S           4.28480330472546    1.62192028974980    0.12703971131766
C           5.87858807484710    0.91927672845540    0.02148591978479
C           5.81786531509493   -0.45271626519629   -0.04271112199398
C           4.50947995525116   -0.94839275128427   -0.00977061837590
C           7.01184586766786    1.72425885218866    0.01166019878385
C           7.99142404975851    2.43647190232720    0.00331055283541
C           9.12773262449053    3.25837080829265   -0.00592666309797
C          10.36983162629625    2.79715451347275   -0.13716577115580
H          -0.06419371883058   -0.35171792920507    0.20892058291256
H           6.69593033894238   -1.06993132843599   -0.11051606631438
H           4.25843727608960   -1.99358139461489   -0.04910703782521
H           8.93296812134852    4.31876579201095    0.10266600302357
H          10.57187162149821    1.74476172738480   -0.24715549596830
H          11.21810750345364    3.45940653344415   -0.13965722366931
