# ORCA input file
# SCF done        -27.540980114863          0.000882088070
! B3LYP/G D3BJ Opt RIJCOSX def2-SVP def2/J
* xyz 0 1
   C        0.97714        -0.23457         0.17273
   C        2.17294        -0.11252         0.12960
   C        3.56069         0.03997         0.07915
   S        4.28480         1.62192         0.12704
   C        5.87859         0.91928         0.02149
   C        5.81787        -0.45272        -0.04271
   C        4.50948        -0.94839        -0.00977
   C        7.01185         1.72426         0.01166
   C        7.99142         2.43647         0.00331
   C        9.12773         3.25837        -0.00593
   C       10.36983         2.79715        -0.13717
   H       -0.06419        -0.35172         0.20892
   H        6.69593        -1.06993        -0.11052
   H        4.25844        -1.99358        -0.04911
   H        8.93297         4.31877         0.10267
   H       10.57187         1.74476        -0.24716
   H       11.21811         3.45941        -0.13966
*
