24
 SCF done        -37.215678439372          0.000467170626
C           1.59147888757526    0.91176943148656   -0.25893464347807
S           2.71604733514523   -0.31216895868683    0.17804503224579
C           1.43437416933109   -1.39820097374098    0.54027960631419
C           0.21199604513143   -0.84057622042812    0.33755272860734
C           0.30295865816665    0.50028503183350   -0.12982401142888
C          -0.90423489438640    1.30776205659471   -0.48543280208376
C          -2.16843059185619    0.72224844497533    0.16391907021676
C          -2.17193448867950    0.97500207637292    1.58366927354756
N          -2.17140085418706    1.18625314669364    2.70710684137602
C          -2.24954436610501   -0.79393541758824   -0.11278616084056
O          -2.22826336421930   -0.93467498062397   -1.51773160868477
C          -2.56613297725719   -2.21075499471938   -1.99628953060862
C          -1.09854268989206   -1.51149685683134    0.60621305093434
H           1.95127832865517    1.86527253855713   -0.59057705827108
H           1.66204977109816   -2.38566490104937    0.88952640822684
H          -1.04509644884280    1.27702342681521   -1.56922419070126
H          -0.77246622907774    2.34982904723397   -0.18518520669212
H          -3.05071648811631    1.20732663931236   -0.26963684503855
H          -3.20613080144677   -1.18664451349881    0.27775102847393
H          -2.67365723559835   -2.10898589432580   -3.07465005088320
H          -3.51354285583570   -2.55832502559866   -1.56611684572471
H          -1.78671424040723   -2.95075509605298   -1.78519091445267
H          -1.05716094673052   -2.56034820400818    0.30584994566588
H          -1.30463372246543   -1.48753980272283    1.68127688328015
