# ORCA input file
# SCF done        -37.215678439372          0.000467170626
! B3LYP/G D3BJ Opt RIJCOSX def2-SVP def2/J
* xyz 0 1
   C        1.59148         0.91177        -0.25893
   S        2.71605        -0.31217         0.17805
   C        1.43437        -1.39820         0.54028
   C        0.21200        -0.84058         0.33755
   C        0.30296         0.50029        -0.12982
   C       -0.90423         1.30776        -0.48543
   C       -2.16843         0.72225         0.16392
   C       -2.17193         0.97500         1.58367
   N       -2.17140         1.18625         2.70711
   C       -2.24954        -0.79394        -0.11279
   O       -2.22826        -0.93467        -1.51773
   C       -2.56613        -2.21075        -1.99629
   C       -1.09854        -1.51150         0.60621
   H        1.95128         1.86527        -0.59058
   H        1.66205        -2.38566         0.88953
   H       -1.04510         1.27702        -1.56922
   H       -0.77247         2.34983        -0.18519
   H       -3.05072         1.20733        -0.26964
   H       -3.20613        -1.18664         0.27775
   H       -2.67366        -2.10899        -3.07465
   H       -3.51354        -2.55833        -1.56612
   H       -1.78671        -2.95076        -1.78519
   H       -1.05716        -2.56035         0.30585
   H       -1.30463        -1.48754         1.68128
*
