15
 SCF done        -22.538887557581          0.000283476141
C          -0.05041922548520    1.10275289526432   -0.18065197695787
S          -1.19234798804656   -0.18459222372723   -0.17030448377749
C           0.07232259419172   -1.34065934686338   -0.06935272856009
C           1.29920350892651   -0.76770897730770   -0.04476500151964
C           1.24091460917249    0.65488390549591   -0.10918280704229
N           2.32388906732786    1.50404094841625   -0.10239626476682
C           3.65042433760689    1.15981281393914   -0.03546243703490
C           4.64360786190292    2.04248219078429   -0.01588146324526
H          -0.39429425291215    2.11567010096177   -0.23834203149706
H          -0.16896413164133   -2.38404331877690   -0.03348178980805
H           2.20882785250339   -1.33568713881041    0.01721782605638
H           2.11740090438625    2.49148262052259   -0.14118303628720
H           3.84641353456560    0.09933943811059   -0.00045642374277
H           4.46178328720314    3.10307797926926   -0.05005873275303
H           5.66674804029848    1.72488811272150    0.03501135093611
