# ORCA input file
# SCF done        -40.698583700536          0.000754155154
! B3LYP/G D3BJ Opt RIJCOSX def2-SVP def2/J
* xyz 0 1
   C        2.50037         0.84860         0.05970
   C        3.10713        -0.36425        -0.02042
   S        2.01371        -1.70131        -0.19387
   C        0.67602        -0.61235        -0.16200
   C        1.09822         0.71697        -0.02028
   N        0.01106         1.55152         0.01700
   C        0.08632         2.98694         0.08767
   C        0.10462         3.62126        -1.30301
   C       -1.10788         0.76871        -0.13207
   C       -0.72234        -0.57786        -0.22868
   S       -2.08117        -1.63088        -0.37493
   C       -3.13984        -0.26882        -0.29318
   C       -2.52146         0.94806        -0.16696
   C       -3.23026         2.21455        -0.10562
   C       -4.49476         2.36162         0.27130
   H        3.03436         1.77548         0.16690
   H        4.15806        -0.57132         0.01021
   H        1.00318         3.24662         0.62395
   H       -0.76359         3.35660         0.66804
   H        0.97057         3.27324        -1.86125
   H        0.15207         4.70390        -1.22062
   H       -0.79032         3.34996        -1.85832
   H       -4.19332        -0.44611        -0.37639
   H       -2.66312         3.08759        -0.39701
   H       -5.09738         1.52968         0.59271
   H       -4.96727         3.32837         0.28202
*
