28
 SCF done        -42.494557956090          0.000620962386
C           1.56105479435813   -1.45836801486382   -0.17316398880785
S           2.63349259075064   -0.18956717288687    0.24580188350650
C           1.32723372637710    0.96850805158622    0.26094497689473
C           0.12924959063261    0.36116278208612   -0.02195442851462
C           0.27375887702791   -1.03161004103755   -0.27198951397816
C          -0.87056049061481   -1.91182236171714   -0.70097400247268
C          -0.74404566113243   -2.10825738653658   -2.13038437812424
N          -0.63750089189656   -2.24574618825960   -3.26015340649851
C          -2.22691715535457   -1.26967020573521   -0.38158594744732
C          -2.22675349779182    0.19767088053463   -0.79612863564790
C          -1.24294438997487    0.97760054526462    0.07877669264503
O          -1.73618669734699    0.89512844561178    1.41267522084475
C          -1.14994812883538    1.78659655346024    2.32051603642998
C           1.68457538787432    2.34742965912476    0.52790623113307
C           1.13951345545133    3.42351190808274   -0.02603956498361
H           1.94436897058445   -2.44698292173806   -0.33276857107956
H          -0.78991155129642   -2.89679050308663   -0.22480716971408
H          -2.40741537294101   -1.32533156907528    0.69225964979006
H          -3.01954317551126   -1.81167448847135   -0.90052450894466
H          -3.22256336348542    0.61913128196108   -0.65896544311518
H          -1.94143641666727    0.29904368947137   -1.84521872625399
H          -1.22181161443771    2.03246688586291   -0.22631994323394
H          -1.68656046092676    1.65820221590085    3.25918268627448
H          -1.24885164822220    2.82481378172505    1.98012570206191
H          -0.08700231925849    1.57142465973685    2.47881886184167
H           2.52311516527841    2.46561975751374    1.20428850344868
H           0.34760772339853    3.36453398332937   -0.75227132569165
H           1.48931255396074    4.41092577215612    0.22009310963779
