# ORCA input file
# SCF done        -42.494557956090          0.000620962386
! B3LYP/G D3BJ Opt RIJCOSX def2-SVP def2/J
* xyz 0 1
   C        1.56105        -1.45837        -0.17316
   S        2.63349        -0.18957         0.24580
   C        1.32723         0.96851         0.26094
   C        0.12925         0.36116        -0.02195
   C        0.27376        -1.03161        -0.27199
   C       -0.87056        -1.91182        -0.70097
   C       -0.74405        -2.10826        -2.13038
   N       -0.63750        -2.24575        -3.26015
   C       -2.22692        -1.26967        -0.38159
   C       -2.22675         0.19767        -0.79613
   C       -1.24294         0.97760         0.07878
   O       -1.73619         0.89513         1.41268
   C       -1.14995         1.78660         2.32052
   C        1.68458         2.34743         0.52791
   C        1.13951         3.42351        -0.02604
   H        1.94437        -2.44698        -0.33277
   H       -0.78991        -2.89679        -0.22481
   H       -2.40742        -1.32533         0.69226
   H       -3.01954        -1.81167        -0.90052
   H       -3.22256         0.61913        -0.65897
   H       -1.94144         0.29904        -1.84522
   H       -1.22181         2.03247        -0.22632
   H       -1.68656         1.65820         3.25918
   H       -1.24885         2.82481         1.98013
   H       -0.08700         1.57142         2.47882
   H        2.52312         2.46562         1.20429
   H        0.34761         3.36453        -0.75227
   H        1.48931         4.41093         0.22009
*
