# ORCA input file
# SCF done        -30.101959088119          0.000365577647
! B3LYP/G D3BJ Opt RIJCOSX def2-SVP def2/J
* xyz 0 1
   C       -1.28294         1.13862        -0.00201
   C        0.00483         0.73095        -0.00119
   C       -0.01355        -0.71971        -0.00072
   C       -1.41693        -1.11702        -0.00096
   O       -1.96263        -2.17640        -0.00118
   O       -2.13066         0.09348        -0.00224
   C        1.27423        -1.12737         0.00009
   O        2.12195        -0.08222         0.00020
   C        1.40821         1.12827        -0.00059
   O        1.95389         2.18765        -0.00073
   H       -1.72559         2.11812        -0.00275
   H        1.71691        -2.10686         0.00069
*
