12
 SCF done        -30.101959088119          0.000365577647
C          -1.28293748575865    1.13862097375845   -0.00201383103836
C           0.00483155923272    0.73095014949192   -0.00118931766333
C          -0.01354748202308   -0.71971183314835   -0.00072113591062
C          -1.41692697441438   -1.11701995814154   -0.00096063307807
O          -1.96262579233621   -2.17639816300292   -0.00117667920981
O          -2.13066100693635    0.09347502506423   -0.00223936785181
C           1.27423327654160   -1.12737165945271    0.00009240900271
O           2.12194901862515   -0.08222210775368    0.00019864912888
C           1.40820951200358    1.12827012149882   -0.00058695439890
O           1.95388814767339    2.18765441353157   -0.00072959862374
H          -1.72559378086740    2.11811614246218   -0.00274954596942
H           1.71691100825962   -2.10686310430795    0.00068600561247
