25
 SCF done        -33.321755183546          0.000286168742
C           0.33730240561504    1.32246229357326    0.96683705569009
S          -0.15397764118154   -0.14479923469352    1.71254501844458
C           1.40799337594595    1.16315296160124    0.14427770557679
C           2.03818496751945    2.30428447077241   -0.59369539499562
C           2.78049330315554    3.25361712694995    0.35714207671249
N           1.83810283275295    3.95495856669675    1.20995358091551
C           1.85146894957023   -0.19484037394776    0.10129294210396
C           3.02048235606088   -0.70321798983492   -0.68444809359008
C           4.34380867294944   -0.45881919626630    0.05290467260674
N           4.39950015784517   -1.28371692083056    1.24717968849439
C           1.09827245478444   -0.99779172931439    0.90052905693701
H          -0.18104020175509    2.23127634228601    1.19326507626947
H           1.26454812658579    2.87403615171115   -1.11502934734145
H           2.74266986453539    1.92744795499183   -1.33542572577573
H           3.40864201102431    3.93371163354742   -0.24585569797124
H           3.44262145553706    2.67444101794491    1.00726220068163
H           1.25519315913124    4.57314729143770    0.65484957072831
H           2.32665591410456    4.51872667164745    1.89607599860879
H           3.05942024100196   -0.21618118052418   -1.66050031695424
H           2.91239853573801   -1.77763335143778   -0.83613924151022
H           4.44704962545493    0.61994603095261    0.26183752825861
H           5.17561596056558   -0.75790168007044   -0.59253769142475
H           3.61483923368427   -1.06365727795526    1.85291670324227
H           5.25291635178806   -1.10536150334993    1.76476371104183
H           1.20424788758730   -2.05345807588650    1.05424892325132
