# ORCA input file
# SCF done        -32.442189892139          0.000849062040
! B3LYP/G D3BJ Opt RIJCOSX def2-SVP def2/J
* xyz 0 1
   C       -1.47334        -1.23285         0.15371
   S       -2.64753        -0.00002         0.23910
   C       -1.47335         1.23282         0.15364
   C       -0.19806         0.72172         0.06022
   C       -0.19805        -0.72174         0.06027
   C        1.02519        -1.42235        -0.02974
   C        2.19703        -0.71895        -0.11637
   C        3.42999        -1.40546        -0.20776
   N        4.41564        -1.98535        -0.28148
   C        2.19703         0.71893        -0.11642
   C        3.42998         1.40546        -0.20801
   N        4.41575         1.98545        -0.28096
   C        1.02519         1.42232        -0.02982
   H       -1.76968        -2.26228         0.17532
   H       -1.76970         2.26225         0.17519
   H        1.03054        -2.50206        -0.02982
   H        1.03053         2.50204        -0.02994
*
