10
 SCF done        -19.163988001884          0.000761492625
C           0.55275485638442   -1.03676109447866    0.01052036018023
O           1.81481401623494   -0.60552538884741   -0.00369630296209
C           1.78350810065645    0.73871753354410   -0.01058872337245
C           0.50473196529306    1.19443065104391   -0.00245050132547
C          -0.31518593939086    0.02617966071670    0.01376951472279
C          -1.71823211184237   -0.02089234620284    0.02701973315197
N          -2.86408103260849   -0.04392732257232    0.04040475219138
H           0.37603508043106   -2.09422619619309    0.01775666635958
H           2.72351527707680    1.25341218893636   -0.02241784281275
H           0.16700978776499    2.20989231405324   -0.00595765613320
