# ORCA input file
# SCF done        -22.271448039591          0.000483749438
! B3LYP/G D3BJ Opt RIJCOSX def2-SVP def2/J
* xyz 0 1
   C        0.24067        -1.05471         0.16152
   C        1.17624        -0.07725         0.01502
   C        2.64464        -0.31621        -0.11145
   C        0.58702         1.20900         0.00218
   C       -0.77447         1.19700         0.13759
   S       -1.35827        -0.43655         0.28622
   C       -1.65557         2.33324         0.16453
   C       -2.97640         2.27290         0.30044
   H        0.39524        -2.11495         0.20483
   H        2.85983        -1.38138        -0.12943
   H        3.17302         0.13380         0.72860
   H        3.02335         0.13557        -1.02731
   H        1.15630         2.11596        -0.10458
   H       -1.15738         3.28996         0.06519
   H       -3.48669         1.32952         0.40135
   H       -3.58572         3.15903         0.31417
*
