# ORCA input file
# SCF done        -23.567118544345          0.000918953880
! B3LYP/G D3BJ Opt RIJCOSX def2-SVP def2/J
* xyz 0 1
   C        1.14350         1.15644        -0.11840
   C       -0.22379         1.73313         0.13572
   N       -1.16023         0.82774         0.26535
   C       -0.50759        -0.36358         0.11197
   C       -0.53137        -1.71762         0.05786
   S        1.21321        -1.94457        -0.24151
   C        0.91652        -0.15210        -0.12081
   C       -0.45717         3.14778         0.22203
   C       -1.65775         3.67510         0.46403
   H        2.03618         1.73472        -0.25323
   H       -1.28066        -2.48054         0.14582
   H        0.41032         3.77858         0.07795
   H       -2.51136         3.03521         0.60709
   H       -1.81043         4.73873         0.52452
*
