15
 SCF done        -23.388511161859          0.000252292586
C          -0.30789193448296    1.08432734939381    0.18137452757603
N          -1.08323268446073   -0.03393115512238    0.08386579235759
C          -0.30168601514897   -1.11422009214529   -0.12441294659250
C           1.01464235122895   -0.69422183877904   -0.16329475566655
C           0.99411501646981    0.71433379847194    0.03396248154814
C           2.22039981041063   -1.49411284773082   -0.36499802872554
O           3.33009994615792   -1.00624649021178   -0.38413840237145
C           1.99677644234821   -2.98046508936320   -0.55043135585375
H          -0.74337365273882    2.04957830434698    0.34731774702213
H          -2.08777614059479   -0.04831942302441    0.15585320976953
H          -0.72308679918713   -2.09434368405371   -0.22958395759470
H           1.85937717648481    1.34426603374574    0.05771183372601
H           1.36678977476137   -3.15389838741311   -1.41986208696659
H           1.50027003117856   -3.39153357669383    0.32539642710726
H           2.95287667757314   -3.47744290142090   -0.69138048533556
