# ORCA input file
# SCF done        -37.139275392769          0.000416610019
! B3LYP/G D3BJ Opt RIJCOSX def2-SVP def2/J
* xyz 0 1
   C       -1.24095         1.35743        -0.08966
   S       -2.46810         0.14708        -0.18150
   C       -0.00869         0.79220        -0.04951
   C        1.40084         1.21749         0.02751
   O        1.88511         2.31878         0.08078
   N        2.12552         0.02905         0.02675
   C        3.56533        -0.01077         0.09249
   C        1.34299        -1.12208        -0.04327
   O        1.77685        -2.24655        -0.05687
   C       -0.03978        -0.62910        -0.09263
   C       -1.29831        -1.16126        -0.16623
   C       -1.66169        -2.54819        -0.22486
   C       -2.91131        -2.99876        -0.29268
   H       -1.51413         2.39353        -0.07193
   H        3.92546         1.01627         0.11242
   H        3.96405        -0.53166        -0.77880
   H        3.88503        -0.53657         0.99318
   H       -0.81656        -3.22442        -0.21005
   H       -3.75293        -2.32427        -0.30615
   H       -3.12972        -4.05066        -0.33433
*
