20
 SCF done        -37.139275392769          0.000416610019
C          -1.24095488762056    1.35743483434859   -0.08965540160908
S          -2.46810343475335    0.14708192511255   -0.18150074869230
C          -0.00869314895844    0.79219668010547   -0.04950638642098
C           1.40083675522398    1.21748899041628    0.02751383364803
O           1.88510697849370    2.31877893804431    0.08077926955663
N           2.12551761916526    0.02904756082699    0.02674628845113
C           3.56532701884497   -0.01077058223952    0.09249174564345
C           1.34299096410584   -1.12207542001642   -0.04327424239536
O           1.77685230029261   -2.24655364767821   -0.05686935043389
C          -0.03977976125391   -0.62910370197187   -0.09262623023537
C          -1.29830707470354   -1.16126414706459   -0.16623457050127
C          -1.66169030719652   -2.54819370269738   -0.22485551616809
C          -2.91131484918476   -2.99876084582484   -0.29267535670850
H          -1.51412586176100    2.39353057689727   -0.07193140053113
H           3.92546070349727    1.01627039627159    0.11241783334986
H           3.96404722178456   -0.53165756487704   -0.77880196267244
H           3.88502848132277   -0.53656964906262    0.99317930089017
H          -0.81655890413102   -3.22441684505342   -0.21005278751474
H          -3.75292823740823   -2.32426935869151   -0.30615078612264
H          -3.12972157575966   -4.05066443684568   -0.33433353153366
