18
 SCF done        -31.678472847799          0.000602937779
C           1.81221388766247    0.47691079891086    0.08585418562201
O           1.70579118633029   -0.87060115128114    0.15633562788285
C           0.40416439280128   -1.19000346274619    0.09372466765861
C          -0.35612599814002   -0.03463818176771   -0.02009723724668
C           0.57610812517250    1.05213057527430   -0.02365672668343
O           0.21251875400900    2.34431785107120   -0.11831175410213
C           1.26117890321011    3.28496869327298   -0.09666076777133
C          -1.75036093995773    0.04589204487144   -0.11154170705820
N          -2.89391821799784    0.09459951387359   -0.18611166264407
C          -0.03837100776331   -2.55844508261928    0.14715190460399
C           0.78293411252412   -3.59844906187337    0.26652946732209
H           2.80054208908698    0.88729297390991    0.12316633902329
H           0.78788401588364    4.26171865073121   -0.17274225380384
H           1.94105474207956    3.13818393740719   -0.94168109458244
H           1.82863322655481    3.22224807436019    0.83709941262042
H          -1.10999265141294   -2.68417157845081    0.08180079925157
H           1.84950700715904   -3.46356553971533    0.32827524593653
H           0.41265837279803   -4.60722905522906    0.30120555397078
