17
 SCF done        -32.994408298061          0.000697016426
N           2.12631145006195   -0.07409894848687    0.16890342229497
C           0.79346918857509    0.13566025007666    0.04907059959622
S          -0.29361338901799   -1.21014754078555    0.09903060730829
C          -1.64081593248052   -0.11654335932645   -0.04124859459364
N          -2.92134493134961   -0.65944690677816   -0.05269658054795
O          -3.86469269840986    0.10724979570022   -0.15321143139573
O          -3.00822603315952   -1.87536662306408    0.03742756336900
C          -1.25450141853251    1.19533840611990   -0.12332297303695
C           0.13910824878189    1.36568072081885   -0.07116240973490
C           0.83518319007124    2.63676406582725   -0.12639337024155
C           0.26329692609804    3.82083156877525   -0.31354335422155
H           2.47098551041372   -1.01535737462322    0.09497074296383
H           2.75690722326397    0.66567899275073   -0.08949755265747
H          -1.96964375774758    1.99199806178308   -0.21115872112727
H           1.90912819760370    2.58901150084336    0.00422813478512
H          -0.79762044089694    3.93578603725415   -0.44757362298348
H           0.84759866672494    4.72371135311483   -0.33931245977698
