# ORCA input file
# SCF done        -32.994408298061          0.000697016426
! B3LYP/G D3BJ Opt RIJCOSX def2-SVP def2/J
* xyz 0 1
   N        2.12631        -0.07410         0.16890
   C        0.79347         0.13566         0.04907
   S       -0.29361        -1.21015         0.09903
   C       -1.64082        -0.11654        -0.04125
   N       -2.92134        -0.65945        -0.05270
   O       -3.86469         0.10725        -0.15321
   O       -3.00823        -1.87537         0.03743
   C       -1.25450         1.19534        -0.12332
   C        0.13911         1.36568        -0.07116
   C        0.83518         2.63676        -0.12639
   C        0.26330         3.82083        -0.31354
   H        2.47099        -1.01536         0.09497
   H        2.75691         0.66568        -0.08950
   H       -1.96964         1.99200        -0.21116
   H        1.90913         2.58901         0.00423
   H       -0.79762         3.93579        -0.44757
   H        0.84760         4.72371        -0.33931
*
