16
 SCF done        -35.778017771887          0.000446298640
C          -0.21806585540084    1.04465876641710    0.11900375469003
O          -0.97641245366060   -0.04825425533977    0.14591114124849
C          -0.16268097250028   -1.12697977234043    0.06342928960079
C           1.14418690130022   -0.71344130020471   -0.01811668208263
C           1.10296759089987    0.70239539893291    0.01887595634825
C           2.26752841953452    1.62179678370539   -0.04010681655460
F           1.90145154113616    2.91161952801478    0.01718500561314
F           3.13207402313763    1.42413195470319    0.97141374966828
F           2.98200803475888    1.47671967897585   -1.17067732201578
C          -0.71087977580469   -2.46163230815997    0.07010287608914
C          -2.00898239841843   -2.73300095299624    0.15393243689754
H          -0.69806060133652    2.00154215144711    0.17540359792493
H           2.01891022824308   -1.32502083250653   -0.09370019786417
H           0.02665687205780   -3.24800019402328   -0.00068412914679
H          -2.74199949345758   -1.94729180028813    0.22184907010313
H          -2.37407206048922   -3.74441284633726    0.15318826948028
