# ORCA input file
# SCF done        -35.778017771887          0.000446298640
! B3LYP/G D3BJ Opt RIJCOSX def2-SVP def2/J
* xyz 0 1
   C       -0.21807         1.04466         0.11900
   O       -0.97641        -0.04825         0.14591
   C       -0.16268        -1.12698         0.06343
   C        1.14419        -0.71344        -0.01812
   C        1.10297         0.70240         0.01888
   C        2.26753         1.62180        -0.04011
   F        1.90145         2.91162         0.01719
   F        3.13207         1.42413         0.97141
   F        2.98201         1.47672        -1.17068
   C       -0.71088        -2.46163         0.07010
   C       -2.00898        -2.73300         0.15393
   H       -0.69806         2.00154         0.17540
   H        2.01891        -1.32502        -0.09370
   H        0.02666        -3.24800        -0.00068
   H       -2.74200        -1.94729         0.22185
   H       -2.37407        -3.74441         0.15319
*
