19
 SCF done        -44.310484713866          0.000333386244
C          -1.44603122679765   -1.23181353098820    0.29554641904300
S          -2.62927612583554   -0.00754544208526    0.25882446282795
C          -1.47173827267644    1.22125931148934    0.03638478338012
C          -0.19144960354102    0.71542808559547   -0.01175719965455
C          -0.17643488768369   -0.72097461991900    0.14088358305596
C           1.05430461402847   -1.41289756937617    0.09374293784655
C           2.21177913190428   -0.70954111676363   -0.07471708263197
N           3.43406192969641   -1.45895002764468   -0.29470089114747
O           3.57099478227088   -2.48180367991683    0.33161818288928
O           4.17938287315293   -1.03627392440295   -1.14646131565503
C           2.20074102893467    0.71329261608135   -0.17718891437019
N           3.43983884899638    1.46556186492794   -0.15370231339559
O           4.32679022000636    1.02395311994679    0.53798852969439
O           3.46143807660824    2.50756102913897   -0.76327534236464
C           1.02822909448626    1.41220944465567   -0.15885338810823
H          -1.72988566745612   -2.25614620313090    0.42933602487150
H          -1.77705618361639    2.24444995217395   -0.05059847739988
H           1.08292495054064   -2.48975190685193    0.16191125204748
H           1.04233641698135    2.48927259707006   -0.22875125092861
