18
 SCF done        -33.847507882177          0.000292841989
C           1.17856268279209    0.26150261752164   -0.00194007948727
C           0.72476897890740   -1.00651213117589    0.00101451923158
F           1.46142299420924   -2.11808177298205    0.00331252416846
C          -0.73258559805550   -1.03727406869533    0.00145849234005
C          -1.15931197690123    0.23695485819663   -0.00116734937202
C           0.00865319929599    1.11917583613846   -0.00346384902313
C          -0.00873907485247    2.47910015863726   -0.00627109414560
C           1.15920694270349    3.36131882027217   -0.00860880331428
C           0.73244901007900    4.63553845615858   -0.01077748162105
C          -0.72488272455466    4.60472752833277   -0.00978236477981
C          -1.17863061869342    3.33672985426669   -0.00718828030775
F          -1.46160669429022    5.71625035012489   -0.01134246757283
H           2.19788117034280    0.58929066081565   -0.00288747818011
H          -1.31413788833182   -1.93929834491874    0.00355463316902
H          -2.17446292068726    0.58127146128703   -0.00167154573661
H           2.17434509435651    3.01696539608764   -0.00864835650324
H           1.31399610327516    5.53757359758924   -0.01287341307706
H          -2.19793867959509    3.00889672234335   -0.00590760578836
