27
 SCF done        -36.029245486495          0.000553623486
C           1.54326667287000    1.26886331690847   -0.64035602766586
S           2.76515253784284    0.05654758599907   -0.66093776859200
C           1.58400847975697   -1.16917081175796   -0.40679377351757
C           0.32585751416799   -0.66676872867080   -0.31275088215490
C           0.30206703634455    0.75089507831026   -0.44940757262137
C          -0.97136212092171    1.53657128589339   -0.41918062688707
C          -2.10672291198896    0.74047098601065    0.22832324351855
C          -2.16016289981838   -0.65796176438832   -0.40822869056205
C          -0.91284267373877   -1.46373497031469   -0.05108831094042
C          -2.00960700980802    0.61317945648351    1.73197109158618
C          -0.94332137508520    0.95877984377494    2.44638481535303
C          -3.21560877978118    0.06713335109089    2.36142091712735
C          -3.23693081475092   -0.67146766915228    3.46199460285959
H           1.82022426227532    2.29605168811812   -0.77305465307273
H           1.89601097226754   -2.19243532210390   -0.33828501793185
H          -1.25899155428569    1.77151005716496   -1.44989339110229
H          -0.82445021936812    2.48694107990587    0.09838299862634
H          -3.05023116274692    1.25485848028752    0.00358546178628
H          -2.22967033199016   -0.55065530674545   -1.49328040994751
H          -3.04679950606619   -1.19274818179794   -0.06222918794027
H          -0.88752910531162   -2.39713095917409   -0.61899793437972
H          -0.94598247501199   -1.72573189473034    1.01172133453986
H          -0.04431630077831    1.34786304137893    2.00414312921538
H          -0.94015314702401    0.86724760712284    3.51928308788779
H          -4.14538579372518    0.28054686612973    1.84702632218594
H          -2.33482516511683   -0.93914106327106    3.98629307053379
H          -4.15764412820701   -1.04469305247248    3.87727417209548
