# ORCA input file
# SCF done        -36.029245486495          0.000553623486
! B3LYP/G D3BJ Opt RIJCOSX def2-SVP def2/J
* xyz 0 1
   C        1.54327         1.26886        -0.64036
   S        2.76515         0.05655        -0.66094
   C        1.58401        -1.16917        -0.40679
   C        0.32586        -0.66677        -0.31275
   C        0.30207         0.75090        -0.44941
   C       -0.97136         1.53657        -0.41918
   C       -2.10672         0.74047         0.22832
   C       -2.16016        -0.65796        -0.40823
   C       -0.91284        -1.46373        -0.05109
   C       -2.00961         0.61318         1.73197
   C       -0.94332         0.95878         2.44638
   C       -3.21561         0.06713         2.36142
   C       -3.23693        -0.67147         3.46199
   H        1.82022         2.29605        -0.77305
   H        1.89601        -2.19244        -0.33829
   H       -1.25899         1.77151        -1.44989
   H       -0.82445         2.48694         0.09838
   H       -3.05023         1.25486         0.00359
   H       -2.22967        -0.55066        -1.49328
   H       -3.04680        -1.19275        -0.06223
   H       -0.88753        -2.39713        -0.61900
   H       -0.94598        -1.72573         1.01172
   H       -0.04432         1.34786         2.00414
   H       -0.94015         0.86725         3.51928
   H       -4.14539         0.28055         1.84703
   H       -2.33483        -0.93914         3.98629
   H       -4.15764        -1.04469         3.87727
*
