36
 SCF done        -48.762444196610          0.000540888874
C           0.20231719310835    1.50255803122692   -2.96058184950505
S          -0.85817717888915    0.16989577585162   -3.16158005739702
C          -0.10460919290495   -0.65759639289862   -1.85327268265023
C           0.89125107321165    0.06784724636990   -1.29383817457971
C           1.07567025364302    1.33598868299640   -1.92069241151614
C           2.08071188283337    2.32105041707775   -1.57037621473800
C           2.56607464244179    2.57734420862312   -0.34222067493052
C           3.70789256769063    3.54707390535960   -0.17715003281053
C           5.01880832034502    2.83204067003321    0.04408437989778
C           5.39068679764795    1.76962555536673   -0.76936268474664
C           6.59598985628450    1.12129081985732   -0.57692274861437
C           7.46332609371419    1.51349858068029    0.43424146057130
C           8.79072291436323    0.83516558405185    0.61937851261297
C           9.88184237473659    1.56763693510212   -0.16395762601699
C           7.09319028108108    2.57949216371850    1.24297609004390
C           5.88780749154977    3.22951307462069    1.05142423198916
C           2.00843289518637    1.97758807134322    0.85852113996472
C           2.61089183154535    1.90721403769795    2.04115709107309
H           0.10880877701759    2.35167073175273   -3.60854825631929
H          -0.44673653615497   -1.63792681662206   -1.58677455195049
H           1.50972695512633   -0.28976035617039   -0.49050758227191
H           2.46206574809969    2.89048741978290   -2.41015947688315
H           3.51004950164254    4.21354764232450    0.66484950977780
H           3.79421344229109    4.15857565126717   -1.08029803597432
H           4.72638083793447    1.44642199779403   -1.55804002979261
H           6.86661156193347    0.29526888419470   -1.21977027473487
H           8.72997071260906   -0.19808571767033    0.27147841344749
H           9.05597675206046    0.82357445405001    1.67888215591543
H           9.64226832526573    1.57866178191819   -1.22498725105732
H          10.84307102676787    1.07669774956791   -0.02937548767804
H           9.96652415800298    2.59695872378985    0.17734448499581
H           7.75396251430143    2.90158724824997    2.03569590184374
H           5.62034319300508    4.05764000831590    1.69412808129717
H           1.00162998085228    1.59311397752961    0.75651665478861
H           3.61834444446050    2.24999972053404    2.19910689386586
H           2.11672850719520    1.47361953231219    2.89417110208169
