# ORCA input file
# SCF done        -48.762444196610          0.000540888874
! B3LYP/G D3BJ Opt RIJCOSX def2-SVP def2/J
* xyz 0 1
   C        0.20232         1.50256        -2.96058
   S       -0.85818         0.16990        -3.16158
   C       -0.10461        -0.65760        -1.85327
   C        0.89125         0.06785        -1.29384
   C        1.07567         1.33599        -1.92069
   C        2.08071         2.32105        -1.57038
   C        2.56607         2.57734        -0.34222
   C        3.70789         3.54707        -0.17715
   C        5.01881         2.83204         0.04408
   C        5.39069         1.76963        -0.76936
   C        6.59599         1.12129        -0.57692
   C        7.46333         1.51350         0.43424
   C        8.79072         0.83517         0.61938
   C        9.88184         1.56764        -0.16396
   C        7.09319         2.57949         1.24298
   C        5.88781         3.22951         1.05142
   C        2.00843         1.97759         0.85852
   C        2.61089         1.90721         2.04116
   H        0.10881         2.35167        -3.60855
   H       -0.44674        -1.63793        -1.58677
   H        1.50973        -0.28976        -0.49051
   H        2.46207         2.89049        -2.41016
   H        3.51005         4.21355         0.66485
   H        3.79421         4.15858        -1.08030
   H        4.72638         1.44642        -1.55804
   H        6.86661         0.29527        -1.21977
   H        8.72997        -0.19809         0.27148
   H        9.05598         0.82357         1.67888
   H        9.64227         1.57866        -1.22499
   H       10.84307         1.07670        -0.02938
   H        9.96652         2.59696         0.17734
   H        7.75396         2.90159         2.03570
   H        5.62034         4.05764         1.69413
   H        1.00163         1.59311         0.75652
   H        3.61834         2.25000         2.19911
   H        2.11673         1.47362         2.89417
*
