17
 SCF done        -29.230897814570          0.000966072941
C          -1.50963262377518    1.27067164889835   -0.08404231201364
S          -2.67279049611615    0.02806242235867   -0.10516308033955
C          -1.48995325570077   -1.23416744683911   -0.00247828936685
C          -0.21258304377484   -0.68393969426565    0.01923094139133
C          -0.23284122437474    0.76116631451448   -0.01184000415654
N           0.90452056478174    1.49244310387359    0.02435394634111
C           2.01013342962908    0.81798917856152    0.06686619862246
N           2.15430581143043   -0.52315678081417    0.01501967628697
C           1.07935467552352   -1.25597223077860   -0.01834108618182
C          -1.94802520960752   -2.59337171741088    0.06898259677705
C          -1.25031732469366   -3.63793647948113    0.51317884053368
H          -1.80311664937476    2.29991633940307   -0.10945855854038
H           2.93143489990827    1.38298991472319    0.12050841238284
H           1.22776580649649   -2.32425032559877   -0.10993508865292
H          -2.97544132758161   -2.73395664384337   -0.24230220324906
H          -0.24510087816665   -3.54834546203719    0.88562014985697
H          -1.68581315460340   -4.62173214126400    0.53608986030848
