24
 SCF done        -40.492670563546          0.000482707522
C          -1.30439215458677    1.12955471963288   -0.01664589574146
N          -2.11280375553131    0.03680403251516   -0.04505250237969
C          -3.54639777716431    0.04797524561526   -0.13133727030770
C          -1.36427430574607   -1.16637322730118    0.02066635448354
O          -1.87360349716323   -2.26763969287974    0.00674365192226
C           0.00165704667828   -0.71210269767014    0.09408459200567
C          -0.00386607730648    0.72163365687878    0.06764344006734
C           1.37096671757390    1.16148901411171    0.13640377081964
O           1.88458744733886    2.25806500898357    0.14283135221869
N           2.11857318415209   -0.04036895697729    0.20169566453300
C           3.55203508273191    0.01820035297216    0.26983193770540
C           1.30834753756687   -1.15165501393373    0.17681040963547
C           1.67754834373662   -2.54100989518775    0.22669626846930
C           2.88593541010959   -3.09456037958865    0.32475410933335
H          -1.71607980300965    2.12133312448172   -0.05882001207224
H          -3.87850520198984    0.59231796096049   -1.01697548815227
H          -3.98832551753264    0.50466046349066    0.75675458922088
H          -3.87143200810336   -0.98986037086871   -0.20019148028678
H           3.81789254025739    1.07662961294777    0.24480363932576
H           4.00794632066592   -0.48341992233003   -0.58557659404864
H           3.92163780384844   -0.41773830602875    1.19986018672626
H           0.80717145645873   -3.18372119875241    0.17687011126880
H           3.80161863766619   -2.53618136024244    0.38280290318748
H           2.98694256934877   -4.16618217082933    0.35212626206572
