19
 SCF done        -31.336861227460          0.000633024518
C           2.80242186721514    0.20313783907514   -0.04204181562133
S           2.05593581521242   -1.33418985258200    0.17489088208560
C           0.49525211143299   -0.58571810918040    0.14090586770653
C          -0.83340715295876   -0.92264722724973    0.23136601326930
C          -1.63524581019221    0.26630073456497    0.11637155322642
C          -2.86085024399967   -0.29651384163883    0.23103169317774
S          -2.22452837604254   -1.99382383594146    0.41367231158410
C          -0.76627661472598    1.47387944269547   -0.06387312665546
C           0.59289022545205    0.81894726483904   -0.03486081767621
C           1.91622823397989    1.26383781087046   -0.13965438694212
C           2.27816695694891    2.65813001580844   -0.32758022360466
C           3.51178664261830    3.13260825964546   -0.44969372026642
H           3.87220018378607    0.24336345139108   -0.08570710412704
H          -3.88178479784035    0.02091402904932    0.23104256132629
H          -0.88623591693245    2.20027811403379    0.74371231285144
H          -0.95242988090309    1.98673596974183   -1.01077907757123
H           1.43551541978923    3.33592100926309   -0.36685683165703
H           4.37995592015477    2.49756148855972   -0.41830888444987
H           3.69562541700528    4.18376743705463   -0.58860720665600
