24
 SCF done        -39.718841273874          0.000737217462
C           0.76083487028156   -0.97930534089432    0.13890018735308
C           1.20323685542691    0.29210138859924    0.02760223559527
C           0.05777351450511    1.18250546415721   -0.00417220461496
C          -1.12400340427169    0.30972231863115    0.10196129480769
C          -0.68389194582025   -0.97640685001707    0.18589412330548
C          -2.46452664450228    0.70435676160679    0.11734900552275
N          -3.57663607547050    0.99410845553518    0.13248287196489
C           0.06320278167140    2.54067075048687   -0.11344314920942
C          -1.07025294680521    3.42459239727886   -0.15366848453167
C          -0.63849584650783    4.71444484080124   -0.27797226052283
C           0.82131661652993    4.69715698293139   -0.32045256748514
C           1.25198704436108    3.41506747849590   -0.22313912807595
C           2.59431767154368    3.02039011534759   -0.22667750307544
N           3.70868876774869    2.74114821381057   -0.23055292173827
C          -1.47397460335041    5.88119335858228   -0.35438549396191
C          -1.03441763801409    7.13357615062019   -0.47562580919019
H           1.36089287245453   -1.86889812221837    0.18685516334781
H           2.22211405933679    0.62005702757793   -0.03069472362205
H          -1.29988435222173   -1.85280358776990    0.27322693001004
H          -2.09081570690977    3.10068394570951   -0.09516959729877
H           1.44819168286925    5.56420660714398   -0.41391461178402
H          -2.53731335668515    5.68432417623865   -0.30786953196615
H           0.01298008548147    7.37548640274673   -0.52701236103260
H          -1.71635430162916    7.96424106460007   -0.52859146380294
