# ORCA input file
# SCF done        -39.718841273874          0.000737217462
! B3LYP/G D3BJ Opt RIJCOSX def2-SVP def2/J
* xyz 0 1
   C        0.76083        -0.97931         0.13890
   C        1.20324         0.29210         0.02760
   C        0.05777         1.18251        -0.00417
   C       -1.12400         0.30972         0.10196
   C       -0.68389        -0.97641         0.18589
   C       -2.46453         0.70436         0.11735
   N       -3.57664         0.99411         0.13248
   C        0.06320         2.54067        -0.11344
   C       -1.07025         3.42459        -0.15367
   C       -0.63850         4.71444        -0.27797
   C        0.82132         4.69716        -0.32045
   C        1.25199         3.41507        -0.22314
   C        2.59432         3.02039        -0.22668
   N        3.70869         2.74115        -0.23055
   C       -1.47397         5.88119        -0.35439
   C       -1.03442         7.13358        -0.47563
   H        1.36089        -1.86890         0.18686
   H        2.22211         0.62006        -0.03069
   H       -1.29988        -1.85280         0.27323
   H       -2.09082         3.10068        -0.09517
   H        1.44819         5.56421        -0.41391
   H       -2.53731         5.68432        -0.30787
   H        0.01298         7.37549        -0.52701
   H       -1.71635         7.96424        -0.52859
*
