14
 SCF done        -21.255329763132          0.000461840428
C           1.24322756921994   -1.28574501168800    0.00016690657071
S           2.47687793997880   -0.07508623690025   -0.00125463762239
C           1.31117323632284    1.20904464233614    0.00327782339398
C           0.05485052939491    0.71689115136962    0.00295128162060
C           0.01129348386160   -0.71620835469326    0.00117764388007
C          -1.37669911323118   -1.11921925847167    0.00099035054948
C          -2.14958074674646   -0.02669638048219    0.00273919631504
C          -1.34300581836900    1.24491233340251    0.00404515748638
H           1.52377912064171   -2.31978203910247   -0.00111516423321
H           1.65610399045935    2.22378153577143    0.00453197796648
H          -1.70836194085810   -2.14187810593581   -0.00015797863662
H          -3.22565755920860   -0.01006705038939    0.00335976624428
H          -1.55538945861185    1.85409211921412    0.88613459352956
H          -1.55613123285395    1.85662065556923   -0.87610691706436
