# ORCA input file
# SCF done        -24.968374403075          0.000294396677
! B3LYP/G D3BJ Opt RIJCOSX def2-SVP def2/J
* xyz 0 1
   C       -0.93213         1.42069        -0.00011
   C       -2.04803         0.63241        -0.00139
   N       -2.05110        -0.72120        -0.00185
   C       -0.94078        -1.38777        -0.00118
   C        0.30078        -0.70903         0.00014
   C        0.29742         0.73515         0.00070
   N        1.56089         1.12594         0.00192
   O        2.28686         0.01341         0.00200
   N        1.56357        -1.09697         0.00109
   H       -0.97203         2.49644         0.00033
   H       -3.03659         1.07000        -0.00182
   H       -0.99444        -2.46654        -0.00158
*
