12
 SCF done        -24.968374403075          0.000294396677
C          -0.93212665617833    1.42069228876828   -0.00011493118802
C          -2.04803163189767    0.63240607150660   -0.00138845356586
N          -2.05110445185574   -0.72120036571569   -0.00185276524688
C          -0.94077857540820   -1.38777181207514   -0.00118416837360
C           0.30078242668472   -0.70902505854423    0.00013724398658
C           0.29742160847127    0.73515415104927    0.00069629182791
N           1.56088989096347    1.12593604751273    0.00191753800210
O           2.28686098179305    0.01340571990195    0.00200325056168
N           1.56356996954831   -1.09696843558850    0.00108601547847
H          -0.97203445285913    2.49643683862085    0.00032688091501
H          -3.03659266690260    1.07000301813239   -0.00182177191042
H          -0.99443644235915   -2.46653846356850   -0.00157513048699
