# ORCA input file
# SCF done        -43.011968480380          0.000715077045
! B3LYP/G D3BJ Opt RIJCOSX def2-SVP def2/J
* xyz 0 1
   C        1.41257         0.21967        -0.04288
   C        0.69147         1.28171        -0.57782
   O        1.42415         2.34417        -1.02302
   C        0.74613         3.44960        -1.58093
   C        1.79200         4.46919        -2.00487
   C       -0.69468         1.19050        -0.61914
   C       -1.35517         0.06758        -0.14673
   C       -2.85234        -0.02136        -0.23912
   C       -3.27216        -0.72140        -1.53254
   C       -0.61945        -1.00124         0.37967
   O       -1.35404        -2.06617         0.83164
   C       -0.69767        -3.21790         1.31178
   C       -0.14554        -4.09598         0.19125
   C        0.76647        -0.90569         0.43015
   H        2.48793         0.29018        -0.00532
   H        0.06598         3.89062        -0.83847
   H        0.15547         3.13112        -2.45161
   H        2.36921         4.78852        -1.14189
   H        1.30804         5.33301        -2.45144
   H        2.46978         4.02448        -2.72820
   H       -1.29083         1.99689        -1.01799
   H       -3.28241         0.98178        -0.21243
   H       -3.23184        -0.58761         0.61171
   H       -2.89538        -0.17798        -2.39641
   H       -4.35617        -0.77826        -1.60181
   H       -2.86846        -1.72981        -1.55682
   H       -1.47388        -3.76344         1.85721
   H        0.09415        -2.94936         2.02245
   H       -0.95240        -4.39418        -0.47359
   H        0.31192        -4.98682         0.61326
   H        0.59744        -3.55782        -0.39198
   H        1.36602        -1.70405         0.83778
*
