# ORCA input file
# SCF done        -30.961445011473          0.000480283286
! B3LYP/G D3BJ Opt RIJCOSX def2-SVP def2/J
* xyz 0 1
   C        2.87430        -1.21896        -0.00189
   S        3.11038         0.49393        -0.00218
   C        1.39039         0.75528        -0.00222
   C        0.69402        -0.46413        -0.00181
   C        1.57338        -1.58278        -0.00159
   C       -0.71312        -0.42391        -0.00162
   C       -1.33870         0.83330        -0.00186
   S       -3.07081         0.67063        -0.00126
   C       -2.93297        -1.05295        -0.00119
   C       -1.65496        -1.49049        -0.00110
   C       -0.62666         2.03291        -0.00234
   C        0.74805         1.99361        -0.00251
   H        3.73780        -1.85519        -0.00182
   H        1.23916        -2.60455        -0.00125
   H       -3.83141        -1.63880        -0.00095
   H       -1.37966        -2.52968        -0.00076
   H       -1.15468         2.97321        -0.00235
   H        1.32892         2.90221        -0.00268
*
