# ORCA input file
# SCF done        -38.241825064778          0.000472979246
! B3LYP/G D3BJ Opt RIJCOSX def2-SVP def2/J
* xyz 0 1
   C        0.41080         0.91339         0.01087
   S       -0.83764        -0.26243        -0.13315
   C        0.26104        -1.55942         0.24956
   C        1.52605        -1.07004         0.45935
   C        1.60365         0.34988         0.34049
   S        3.11209         1.20440         0.62616
   C        2.52693         2.91634         0.89310
   C        3.65871         3.74237         1.47287
   S        2.94326        -2.05407         0.83074
   C        3.87832        -1.84258        -0.73794
   C        5.23225        -2.50931        -0.61056
   C       -0.27094        -2.89857         0.29238
   C        0.27593        -3.93806         0.91519
   H        0.17092         1.94472        -0.14686
   H        1.68250         2.86426         1.58068
   H        2.20060         3.31634        -0.06759
   H        3.98778         3.32235         2.42038
   H        3.32332         4.76355         1.63963
   H        4.50590         3.75962         0.79117
   H        3.98024        -0.77380        -0.92026
   H        3.27946        -2.29965        -1.52668
   H        5.80141        -2.05377         0.19619
   H        5.78790        -2.39734        -1.53932
   H        5.11626        -3.56940        -0.39654
   H       -1.21842        -3.01198        -0.22004
   H        1.19711        -3.85665         1.46327
   H       -0.19264        -4.90654         0.88461
*
