27
 SCF done        -38.241825064778          0.000472979246
C           0.41080240984444    0.91339155758865    0.01087382626793
S          -0.83763884565832   -0.26243365647815   -0.13314689366117
C           0.26103547639227   -1.55942220953858    0.24956076858043
C           1.52604616637072   -1.07003628987994    0.45934680715989
C           1.60365379247127    0.34988427620799    0.34048633533338
S           3.11209099934968    1.20439846837073    0.62615505090448
C           2.52692592983939    2.91633956479214    0.89310329647257
C           3.65871332354360    3.74237326503459    1.47286970340400
S           2.94326188787334   -2.05407277875502    0.83073931336018
C           3.87831846723469   -1.84258490696953   -0.73793551608840
C           5.23224897343534   -2.50930510640822   -0.61056263138391
C          -0.27093712967511   -2.89856671058677    0.29238201896598
C           0.27593294087644   -3.93806029824990    0.91518560946116
H           0.17092371732585    1.94472178773986   -0.14686491744662
H           1.68249873518851    2.86425908798540    1.58068055131077
H           2.20060153064618    3.31634415695308   -0.06758548943175
H           3.98778211474762    3.32234603558564    2.42038019378725
H           3.32331773019954    4.76355262689772    1.63963373459800
H           4.50590029614192    3.75962447876370    0.79117005326187
H           3.98023999867225   -0.77379688323041   -0.92026024782167
H           3.27946397528366   -2.29964591856847   -1.52667701779046
H           5.80140675255427   -2.05377338305610    0.19618826418012
H           5.78790125774970   -2.39734361414561   -1.53932235360136
H           5.11625588759368   -3.56939915994171   -0.39654477937343
H          -1.21841842724806   -3.01198356972152   -0.22003726800392
H           1.19711010576945   -3.85665360611317    1.46326727701814
H          -0.19263806652267   -4.90653721427624    0.88461431053648
