26
 SCF done        -41.041799991299          0.000328783289
C           1.63483482052099    1.24463966750438    0.03777260363311
S           2.79678946085693   -0.01314786984955   -0.12681117633738
C           1.55908541087321   -1.20143429301645   -0.05997763679382
C           0.32413389518776   -0.65161301430242    0.08445814448463
C           0.36626971744661    0.77013973565740    0.13867694112944
C          -0.86508667093395    1.59965760655929    0.32285596528530
C          -2.10353016286715    0.80307311076490   -0.08102855602813
C          -2.11169162873601   -0.54613492247070    0.63100576135485
C          -0.95601854503867   -1.43075971768289    0.12997102238509
C          -1.30693837928843   -1.92908936962932   -1.26098931797029
O          -1.11933914270356   -1.34141667772704   -2.29083190405999
O          -1.90564710063659   -3.13431516348704   -1.17932484837051
C          -2.34307194433195   -3.73252727206081   -2.33860930145348
C          -2.98062112349510   -4.88707253399762   -2.31020630870935
H           1.96288991435127    2.26492248176115    0.04936364472042
H           1.81826669814883   -2.23916722895968   -0.13326615476881
H          -0.78986331677264    2.51660366230897   -0.26432799582703
H          -0.94446532345190    1.88885364790000    1.37655364381160
H          -2.09584721548127    0.64400626016995   -1.16060649021198
H          -3.00377781389714    1.36436509985898    0.17548259482705
H          -3.05953156748484   -1.06267438151253    0.46556979819059
H          -1.99293284764282   -0.39281891567005    1.70605295842285
H          -0.85540543238215   -2.30839683792485    0.77606642321234
H          -2.11914054694015   -3.17977368114088   -3.24215440796526
H          -3.17979289636967   -5.39441432623734   -1.38315923122741
H          -3.31683825893127   -5.34910506681585   -3.21836617173385
