# ORCA input file
# SCF done        -31.783915569983          0.000354707096
! B3LYP/G D3BJ Opt RIJCOSX def2-SVP def2/J
* xyz 0 1
   C        3.37790         0.22345        -0.00111
   S        2.70573        -1.37372        -0.00132
   C        1.08710        -0.72027        -0.00063
   C       -0.08253        -1.45290        -0.00046
   C       -1.26825        -0.73025         0.00008
   C       -2.65506        -1.07845         0.00037
   C       -3.33274         0.09126         0.00093
   O       -2.51371         1.16937         0.00095
   C       -1.24630         0.68829         0.00044
   C       -0.07836         1.42123         0.00027
   C        1.11182         0.69856        -0.00028
   C        2.44925         1.19958        -0.00055
   H        4.44562         0.32665        -0.00146
   H       -0.07476        -2.53089        -0.00077
   H       -3.06990        -2.06524         0.00019
   H       -4.38607         0.29653         0.00131
   H       -0.08279         2.49897         0.00056
   H        2.68195         2.24949        -0.00037
*
