# ORCA input file
# SCF done        -44.537878269311          0.000769165343
! B3LYP/G D3BJ Opt RIJCOSX def2-SVP def2/J
* xyz 0 1
   C       -1.54321         1.24995        -0.05147
   S       -2.69293        -0.00211        -0.08852
   C       -1.48611        -1.24217        -0.03128
   C       -0.21298        -0.67866        -0.01890
   C       -0.25528         0.76103        -0.01875
   C        0.94525         1.50715         0.00679
   C        2.13248         0.83669         0.00410
   C        3.43929         1.57154         0.03290
   F        3.30353         2.90210         0.12285
   F        4.20961         1.19868         1.07324
   F        4.17846         1.34134        -1.07052
   C        2.18760        -0.58068        -0.05213
   C        1.04643        -1.32148        -0.06643
   C       -1.92580        -2.61227         0.01254
   C       -1.26198        -3.63879         0.53863
   H       -1.85855         2.27392        -0.05097
   H        0.90486         2.58524         0.02268
   H        3.15522        -1.05658        -0.08998
   H        1.09683        -2.39499        -0.14089
   H       -2.91773        -2.77584        -0.39032
   H       -0.30588        -3.52731         1.01613
   H       -1.68021        -4.62991         0.52887
*
