22
 SCF done        -44.537878269311          0.000769165343
C          -1.54320823079353    1.24995215171798   -0.05147200912099
S          -2.69292691985426   -0.00210778451847   -0.08852364632951
C          -1.48611394454756   -1.24216512746615   -0.03127736807006
C          -0.21298414575016   -0.67865581319231   -0.01889865593488
C          -0.25527775775819    0.76103440369953   -0.01875455907816
C           0.94524963394865    1.50714851921706    0.00679275204652
C           2.13248323682504    0.83668774754784    0.00410254333538
C           3.43928970451927    1.57153944903012    0.03290061527183
F           3.30352931624880    2.90209827595555    0.12285441283496
F           4.20960571522964    1.19868105706022    1.07324360435449
F           4.17846302653088    1.34134359787427   -1.07052211977179
C           2.18760410296640   -0.58068491502767   -0.05213406940367
C           1.04642545858548   -1.32148395108008   -0.06642709857505
C          -1.92580404831686   -2.61226656523117    0.01254320155618
C          -1.26197814716154   -3.63878965796369    0.53862528310414
H          -1.85855086588971    2.27392316228551   -0.05096535101591
H           0.90485816977272    2.58523907479572    0.02268326110952
H           3.15522491403374   -1.05658070081455   -0.08997843882694
H           1.09682535120730   -2.39499060751549   -0.14088611925221
H          -2.91773029409954   -2.77583966615555   -0.39032465831614
H          -0.30587856212345   -3.52730699710777    1.01612835946977
H          -1.68020571357309   -4.62990565311088    0.52887006061256
