# ORCA input file
# SCF done        -29.225849539606          0.000359197790
! B3LYP/G D3BJ Opt RIJCOSX def2-SVP def2/J
* xyz 0 1
   C       -1.07671         1.26662        -0.12205
   C        0.19863         0.75766        -0.04587
   N        1.34939         1.46824         0.03938
   C        2.44183         0.76456         0.09900
   C        2.45451        -0.65768         0.08044
   N        1.37111        -1.37641        -0.00092
   C        0.21255        -0.68560        -0.06790
   C       -1.05958        -1.23952        -0.16378
   S       -2.24065         0.02244        -0.22217
   C       -1.37582        -2.63470        -0.21455
   C       -2.60320        -3.13898        -0.32664
   H       -1.37702         2.29446        -0.12529
   H        3.36873         1.31843         0.16557
   H        3.38941        -1.19871         0.13525
   H       -0.50739        -3.27730        -0.15555
   H       -3.47043        -2.50175        -0.38748
   H       -2.77552        -4.19963        -0.36153
*
