17
 SCF done        -29.225849539606          0.000359197790
C          -1.07671224814543    1.26661669238494   -0.12204935858916
C           0.19863126892835    0.75765712186107   -0.04586947928223
N           1.34939148370538    1.46823636169612    0.03937900598520
C           2.44182885351933    0.76456073679977    0.09899540798678
C           2.45451016734971   -0.65768368095132    0.08043883668188
N           1.37110578232280   -1.37640703803060   -0.00091703385653
C           0.21255003806930   -0.68560004747246   -0.06789698905853
C          -1.05957665123251   -1.23951913891596   -0.16377722305994
S          -2.24065233825214    0.02243882439216   -0.22217306508858
C          -1.37581647540980   -2.63470357124883   -0.21454684759417
C          -2.60320119318094   -3.13898242264571   -0.32664418259168
H          -1.37701735378232    2.29446026419347   -0.12528697990126
H           3.36873295792029    1.31842787224699    0.16557184376601
H           3.38941335684418   -1.19871389235359    0.13525452748376
H          -0.50739251493865   -3.27730481836786   -0.15554748725409
H          -3.47043255947968   -2.50174762691903   -0.38747931237735
H          -2.77552257423784   -4.19962563666913   -0.36153166325010
