# ORCA input file
# SCF done        -31.597189670679          0.000565902339
! B3LYP/G D3BJ Opt RIJCOSX def2-SVP def2/J
* xyz 0 1
   C        1.60348        -1.07690        -0.22069
   C        0.30237        -0.72099        -0.07399
   C       -0.87657        -1.50921         0.09171
   C       -2.07260        -0.89192         0.21768
   C       -2.19163         0.53746         0.19027
   C       -1.11001         1.33582         0.03523
   C        0.18041         0.74939        -0.10398
   C        1.41861         1.30944        -0.27235
   C        2.40878         0.14628        -0.35306
   O        3.60639         0.22142        -0.49290
   C        1.75154         2.69073        -0.36068
   C        2.98989         3.17453        -0.53067
   H        2.02221        -2.06425        -0.24075
   H       -0.78733        -2.58490         0.11278
   H       -2.97613        -1.47070         0.34364
   H       -3.17738         0.96527         0.29740
   H       -1.20909         2.41078         0.01568
   H        0.91716         3.37821        -0.28104
   H        3.84157         2.52324        -0.61351
   H        3.17217         4.23377        -0.59004
*
