20
 SCF done        -31.597189670679          0.000565902339
C           1.60348452268024   -1.07690040168032   -0.22069130610914
C           0.30236770794878   -0.72099305570687   -0.07398560351426
C          -0.87656803635713   -1.50921057358437    0.09170835400111
C          -2.07259567878171   -0.89192491325549    0.21767966904225
C          -2.19163101844471    0.53745637049649    0.19026930505842
C          -1.11001052908734    1.33581933239606    0.03523124934536
C           0.18041262363896    0.74938519144530   -0.10397558478648
C           1.41860856449529    1.30943552645390   -0.27235286879795
C           2.40877770986252    0.14627786259556   -0.35306211409188
O           3.60639287930241    0.22142071483357   -0.49290177247005
C           1.75154407426625    2.69073401561349   -0.36068198968299
C           2.98989302759609    3.17453276697643   -0.53066827079756
H           2.02221127864982   -2.06424838049853   -0.24074816701132
H          -0.78732575331497   -2.58490427473923    0.11278239032708
H          -2.97613401772450   -1.47069942103995    0.34363710126056
H          -3.17738479727974    0.96527264865788    0.29740223759170
H          -1.20908885640484    2.41078452436587    0.01567602619429
H           0.91715914343430    3.37821067218169   -0.28104346808213
H           3.84157499272913    2.52324285895825   -0.61350894049684
H           3.17217216279116    4.23376853553037   -0.59003624698024
