20
 SCF done        -40.781961694830          0.000519769741
C          -2.55440031132643   -1.25615994431940   -0.02377233739273
C          -3.34395639657457    0.04577490715043    0.07015183794780
O          -4.52712418822274    0.18660761442846    0.10670690222751
O          -2.47773146611250    1.09354252535971    0.10890315970465
C          -1.19081758063171    0.62654741892757    0.04900729364804
C          -1.14597290290997   -0.76812602359366   -0.03359003545986
C           0.05962215831191   -1.44051842956203   -0.10468753517114
C           1.19352021638395   -0.64767291304684   -0.08716390647964
C           1.14875333878731    0.74689501781549   -0.00307748588378
C          -0.05689034916191    1.41934516916471    0.06692490246749
C           2.55731638360626    1.23461063575319   -0.00880856437114
C           3.34672414763773   -0.06727559158788   -0.10533565741605
O           4.52986991008884   -0.20810579231318   -0.14223135719692
O           2.48045504636759   -1.11470453306499   -0.14729149891212
H          -2.83530095780764   -1.79954284147752   -0.92747297709811
H          -2.78742487623971   -1.89511364279713    0.82995409680220
H           0.12246874092767   -2.51345560881315   -0.16953660785332
H          -0.11971193530666    2.49227872783170    0.13181988775394
H           2.83605059925344    1.77411525842018    0.89791191896085
H           2.79275042292917    1.87704804572434   -0.85913203627766
