# ORCA input file
# SCF done        -40.781961694830          0.000519769741
! B3LYP/G D3BJ Opt RIJCOSX def2-SVP def2/J
* xyz 0 1
   C       -2.55440        -1.25616        -0.02377
   C       -3.34396         0.04577         0.07015
   O       -4.52712         0.18661         0.10671
   O       -2.47773         1.09354         0.10890
   C       -1.19082         0.62655         0.04901
   C       -1.14597        -0.76813        -0.03359
   C        0.05962        -1.44052        -0.10469
   C        1.19352        -0.64767        -0.08716
   C        1.14875         0.74690        -0.00308
   C       -0.05689         1.41935         0.06692
   C        2.55732         1.23461        -0.00881
   C        3.34672        -0.06728        -0.10534
   O        4.52987        -0.20811        -0.14223
   O        2.48046        -1.11470        -0.14729
   H       -2.83530        -1.79954        -0.92747
   H       -2.78742        -1.89511         0.82995
   H        0.12247        -2.51346        -0.16954
   H       -0.11971         2.49228         0.13182
   H        2.83605         1.77412         0.89791
   H        2.79275         1.87705        -0.85913
*
