# ORCA input file
# SCF done        -27.272484347833          0.000794112756
! B3LYP/G D3BJ Opt RIJCOSX def2-SVP def2/J
* xyz 0 1
   C        0.11019         1.34598         0.01279
   S       -1.14473         0.17279        -0.14268
   C       -0.00834        -1.09938        -0.12819
   C        1.27651        -0.64235        -0.01190
   C        2.43466        -1.54786         0.01671
   O        2.36978        -2.75124        -0.05276
   O        3.59172        -0.87546         0.13379
   C        4.76636        -1.67066         0.16575
   C        1.33633         0.77665         0.07051
   H       -0.14639         2.38589         0.04954
   H       -0.32366        -2.12065        -0.20685
   H        5.59277        -0.98674         0.34079
   H        4.89620        -2.19297        -0.78482
   H        4.70255        -2.41129         0.96585
   H        2.25792         1.31975         0.16585
*
