# ORCA input file
# SCF done        -26.417257714370          0.000827398153
! B3LYP/G D3BJ Opt RIJCOSX def2-SVP def2/J
* xyz 0 1
   C       -1.28475        -0.11231         0.10177
   S       -0.39422         1.35431         0.15741
   C        1.12276         0.51889        -0.03729
   C        0.90497        -0.83469        -0.10281
   C       -0.47238        -1.19667        -0.03100
   O       -0.93027        -2.46717        -0.08078
   S        2.13125        -2.10993        -0.19495
   C        2.32948         1.30526        -0.08941
   C        3.48308         0.95394        -0.65309
   H       -2.35196        -0.10311         0.17567
   H       -0.17809        -3.07298        -0.12928
   H        3.07524        -1.43338         0.45343
   H        2.23200         2.28939         0.35100
   H        3.62209         0.02048        -1.17076
   H        4.32548         1.62283        -0.64718
*
