# ORCA input file
# SCF done        -34.926742447489          0.000533654632
! B3LYP/G D3BJ Opt RIJCOSX def2-SVP def2/J
* xyz 0 1
   C        1.53561         1.05466        -0.04684
   N        2.20626        -0.11613         0.15904
   C        1.33263        -1.15899         0.22529
   C        0.06816        -0.64737         0.05768
   C        0.20847         0.75677        -0.11454
   S       -1.42199         1.44141        -0.33260
   O       -1.58452         1.96967        -1.66063
   O       -1.77223         2.30285         0.76460
   C       -2.21448        -0.19089        -0.17400
   C       -1.28274        -1.13851         0.01908
   C       -3.63724        -0.31130        -0.26207
   C       -4.43440         0.73621        -0.46090
   H        2.04692         1.99198        -0.12823
   H        3.20638        -0.19689         0.24961
   H        1.66893        -2.16399         0.38318
   H       -1.50444        -2.18826         0.13933
   H       -4.04261        -1.31154        -0.15811
   H       -4.02881         1.72770        -0.56208
   H       -5.50368         0.62987        -0.52322
*
