19
 SCF done        -34.926742447489          0.000533654632
C           1.53561427167907    1.05466316670702   -0.04683772942563
N           2.20625662146971   -0.11613115512489    0.15904241104585
C           1.33263432870481   -1.15899369830995    0.22528810359266
C           0.06816490214324   -0.64737136004553    0.05768177511220
C           0.20846597309460    0.75676951540389   -0.11454120021543
S          -1.42198650476109    1.44141321970267   -0.33260285306591
O          -1.58451632660595    1.96966821838078   -1.66062546244346
O          -1.77223089545844    2.30285024716140    0.76460465197003
C          -2.21447656724132   -0.19089105723393   -0.17399537654392
C          -1.28273814003747   -1.13851301667471    0.01907881635423
C          -3.63723912478136   -0.31130430453011   -0.26206595915846
C          -4.43440344657700    0.73621006103818   -0.46089725642729
H           2.04691524402608    1.99197705152619   -0.12822603123273
H           3.20638322271174   -0.19689051231284    0.24961256493477
H           1.66892695608622   -2.16399364750013    0.38317526259920
H          -1.50443893912634   -2.18825525745545    0.13933403310945
H          -4.04260553996737   -1.31153511905178   -0.15811235011008
H          -4.02880751773057    1.72770219448069   -0.56208492076800
H          -5.50367851762857    0.62986545383854   -0.52321847932726
