# ORCA input file
# SCF done        -19.638598862050          0.000958408744
! B3LYP/G D3BJ Opt RIJCOSX def2-SVP def2/J
* xyz 0 1
   C       -0.18653         1.18451         0.07705
   S        1.15579         0.10901         0.29600
   C        0.00323        -1.17244        -0.08886
   N       -1.17977        -0.71146        -0.32850
   N       -1.28415         0.59799        -0.23702
   C        0.39263        -2.55748        -0.12028
   C       -0.45744        -3.53449        -0.41953
   H       -0.08970         2.24456         0.19340
   H        1.42867        -2.75719         0.11510
   H       -1.48509        -3.31570        -0.65217
   H       -0.14701        -4.56445        -0.43943
*
