11
 SCF done        -19.638598862050          0.000958408744
C          -0.18652823085232    1.18451078895170    0.07705151290073
S           1.15578969496581    0.10900937740589    0.29599853887764
C           0.00322855408105   -1.17244109134443   -0.08885965400211
N          -1.17976828373253   -0.71145568589084   -0.32850294911503
N          -1.28414971215946    0.59798740961769   -0.23702412846985
C           0.39262800892763   -2.55747859267303   -0.12028191806570
C          -0.45744495995168   -3.53449100233282   -0.41953294797197
H          -0.08970203853788    2.24456163825636    0.19340487426744
H           1.42867432524077   -2.75718624612927    0.11510291749813
H          -1.48509303755572   -3.31570214834784   -0.65216767460943
H          -0.14701432042567   -4.56445444751341   -0.43942857130986
