# ORCA input file
# SCF done        -55.137875453600          0.000615843351
! B3LYP/G D3BJ Opt RIJCOSX def2-SVP def2/J
* xyz 0 1
   N        1.07878         0.04559         0.84939
   C        1.89387        -0.52409        -0.21875
   C        2.64178        -1.72736         0.28789
   C        2.29018        -3.00670        -0.10772
   C        2.97489        -4.12354         0.35602
   O        2.67816        -5.41362         0.01383
   C        1.58017        -5.65766        -0.84146
   C        1.44986        -7.16495        -1.00093
   C        4.04888        -3.94525         1.23309
   C        4.39410        -2.66710         1.64103
   C        3.70171        -1.55436         1.18509
   O        3.98208        -0.26566         1.55157
   C        5.05551        -0.02843         2.43853
   C        5.14382         1.47318         2.66506
   C        4.81845        -5.13890         1.74013
   N        6.19123        -4.79780         2.02620
   C        6.93301        -5.51281         2.93264
   C        8.26066        -5.56503         2.96552
   H        0.64703         0.90695         0.52991
   H        1.68314         0.27702         1.63100
   H        2.62810         0.19483        -0.62142
   H        1.22079        -0.81779        -1.02888
   H        1.46366        -3.11454        -0.79158
   H        1.74900        -5.18628        -1.82021
   H        0.66172        -5.24243        -0.40439
   H        2.36173        -7.57359        -1.42784
   H        0.61403        -7.39738        -1.65452
   H        1.28487        -7.62658        -0.03126
   H        5.22045        -2.57047         2.32673
   H        5.99373        -0.40193         2.00555
   H        4.87930        -0.54535         3.39209
   H        5.30804         1.98288         1.71940
   H        5.96618         1.69701         3.33839
   H        4.21817         1.84032         3.10037
   H        4.73334        -5.94864         1.00027
   H        4.35839        -5.49535         2.66851
   H        6.70878        -4.45825         1.22716
   H        6.34013        -6.00389         3.69367
   H        8.86593        -5.08144         2.21772
   H        8.77875        -6.07908         3.75239
*
