40
 SCF done        -55.137875453600          0.000615843351
N           1.07877977717166    0.04558558756984    0.84938752309456
C           1.89386637854225   -0.52408625406937   -0.21875321279793
C           2.64177663138481   -1.72735575389696    0.28788740179276
C           2.29017927164905   -3.00669559131092   -0.10771992348773
C           2.97489441175292   -4.12354331094671    0.35602446106901
O           2.67816176289114   -5.41362459616218    0.01383018817665
C           1.58016523057027   -5.65766070739886   -0.84145784170802
C           1.44986342201736   -7.16495262263297   -1.00092966626339
C           4.04887646747528   -3.94525404733521    1.23309009336833
C           4.39410434585891   -2.66710002761323    1.64102769319610
C           3.70171032198288   -1.55436289858660    1.18508593752648
O           3.98207855420555   -0.26565664073968    1.55157010813346
C           5.05551075178635   -0.02842836636643    2.43852893725340
C           5.14381969904551    1.47318413292717    2.66505949284320
C           4.81844580207931   -5.13890366736824    1.74013499396261
N           6.19122932676581   -4.79780272309010    2.02619961541010
C           6.93300544409981   -5.51280848316465    2.93263606754208
C           8.26066265382258   -5.56503414110594    2.96552220934097
H           0.64702991747512    0.90694732542674    0.52991134436997
H           1.68313670758057    0.27702165845299    1.63099760421917
H           2.62810416465547    0.19482746763867   -0.62142247802906
H           1.22078679180918   -0.81778940975002   -1.02888472982589
H           1.46366142722107   -3.11453737403374   -0.79157580092710
H           1.74900152065383   -5.18627932230760   -1.82020813832489
H           0.66171806640259   -5.24242800188847   -0.40438602427810
H           2.36172510747075   -7.57359465318359   -1.42784023625066
H           0.61403247313222   -7.39738443814119   -1.65451832397099
H           1.28487435702425   -7.62657852836067   -0.03126483694473
H           5.22044875427718   -2.57047403667403    2.32672936947565
H           5.99373369110147   -0.40193313243212    2.00554714792260
H           4.87930084142846   -0.54534845761930    3.39209179060009
H           5.30804014553538    1.98288406781479    1.71939928980704
H           5.96617638752209    1.69701064199021    3.33839371769533
H           4.21816541290130    1.84032254005677    3.10036660790260
H           4.73334244569098   -5.94863818494740    1.00027412638279
H           4.35839160789962   -5.49535138995817    2.66850669346040
H           6.70877815999204   -4.45825394096603    1.22716084627879
H           6.34013110062513   -6.00388603695408    3.69367049695630
H           8.86593434192309   -5.08144114795246    2.21772025770794
H           8.77874632457755   -6.07907553492161    3.75238719731847
