16
 SCF done        -23.094836240977          0.000279895220
C           1.23152106048750    0.75798742662412   -0.14568966534838
O           1.34009027155728   -0.57532487859097   -0.06277721448377
C           0.08792997924024   -1.06685532268288    0.02303816257251
C          -0.83382703207342   -0.06751862225238    0.00041228168620
C          -2.31481163171537   -0.19629226867849    0.07096109491924
C          -0.08134749230165    1.14920210496165   -0.11266428271197
C          -0.63601134604891    2.48450158120296   -0.17506968603939
C           0.06086962019610    3.59531403888050   -0.37989620599394
H           2.14273416175704    1.31762661999339   -0.21575413608650
H          -0.01745178102055   -2.13134053743386    0.09502922030714
H          -2.59782278125519   -1.24411513132711    0.12667663086897
H          -2.77789373542336    0.24597594803493   -0.81033318432227
H          -2.70125428859406    0.31781446283756    0.95048408805256
H          -1.70859503001606    2.54030596104629   -0.04356523051120
H           1.12766901445296    3.58169336611250   -0.52229100898337
H          -0.41532898924257    4.55987525127180   -0.41560086392586
