15
 SCF done        -26.412684106316          0.000377844970
C          -1.10943836709718    0.10407605790064   -0.10874907289818
C          -0.40921606359128    1.25699664121870    0.00553609240174
S          -1.00000338503993    2.91288833107280    0.02208579097097
S           1.30158811885300    0.97134472514900    0.15157358183534
C           1.03282856466767   -0.74704922127721    0.05318927365709
O           2.05472816749300   -1.62476190749575    0.11008344152046
C          -0.29391130440094   -1.06647805128421   -0.08400032606440
C          -0.75321999138527   -2.43647137505336   -0.18594887037062
C          -2.01587530350684   -2.82244951270663   -0.32553742178295
H          -2.17869584456667    0.07597464535191   -0.20851699400701
H          -2.27854338484529    2.57454118692969   -0.12940734326159
H           2.89539544607325   -1.16457366514169    0.20895664322298
H           0.03996808864055   -3.17014039655673   -0.14012054242044
H          -2.83391348896988   -2.12455655607801   -0.37645101054246
H          -2.27595125232421   -3.86417090202914   -0.39477324226097
