# ORCA input file
# SCF done        -26.412684106316          0.000377844970
! B3LYP/G D3BJ Opt RIJCOSX def2-SVP def2/J
* xyz 0 1
   C       -1.10944         0.10408        -0.10875
   C       -0.40922         1.25700         0.00554
   S       -1.00000         2.91289         0.02209
   S        1.30159         0.97134         0.15157
   C        1.03283        -0.74705         0.05319
   O        2.05473        -1.62476         0.11008
   C       -0.29391        -1.06648        -0.08400
   C       -0.75322        -2.43647        -0.18595
   C       -2.01588        -2.82245        -0.32554
   H       -2.17870         0.07597        -0.20852
   H       -2.27854         2.57454        -0.12941
   H        2.89540        -1.16457         0.20896
   H        0.03997        -3.17014        -0.14012
   H       -2.83391        -2.12456        -0.37645
   H       -2.27595        -3.86417        -0.39477
*
