# ORCA input file
# SCF done        -34.881605142493          0.000792473050
! B3LYP/G D3BJ Opt RIJCOSX def2-SVP def2/J
* xyz 0 1
   C       -1.48572         1.25799        -0.10933
   S       -2.64918         0.02321        -0.22900
   C       -1.44843        -1.22824        -0.23718
   C       -0.17364        -0.67795        -0.14765
   C       -0.19899         0.75955        -0.07440
   C        1.00811         1.48160         0.01995
   C        2.20021         0.80146         0.04192
   C        3.46662         1.52914         0.14091
   O        4.56245         1.02759         0.17019
   C        2.22156        -0.62110        -0.03054
   C        1.07594        -1.34465        -0.12278
   C       -1.80455        -2.61323        -0.33142
   C       -3.04888        -3.07932        -0.42624
   H       -1.79433         2.28363        -0.07069
   H        0.98102         2.56049         0.07419
   H        3.34243         2.63045         0.19008
   H        3.18829        -1.10065        -0.00929
   H        1.10794        -2.42178        -0.17757
   H       -0.97006        -3.30137        -0.32572
   H       -3.89972        -2.41877        -0.43472
   H       -3.25235        -4.13253        -0.49684
*
