21
 SCF done        -34.881605142493          0.000792473050
C          -1.48572235467748    1.25798835012235   -0.10933261319330
S          -2.64917544936113    0.02321006408582   -0.22899855211510
C          -1.44842661583057   -1.22823913911904   -0.23718148733704
C          -0.17364175857568   -0.67795464139454   -0.14765448236037
C          -0.19898595009744    0.75955489746667   -0.07439824553659
C           1.00810982794104    1.48160160802452    0.01995397303085
C           2.20020736038670    0.80146003273448    0.04192218154306
C           3.46662420626144    1.52913785935092    0.14091413703716
O           4.56244929046969    1.02758954537162    0.17019179390637
C           2.22155779586793   -0.62110136529504   -0.03054245335506
C           1.07594437537450   -1.34465133809042   -0.12278339307511
C          -1.80454927089636   -2.61322708791414   -0.33141984239393
C          -3.04888145482209   -3.07932358821304   -0.42624140275461
H          -1.79432981663643    2.28362543237184   -0.07068502986750
H           0.98102174517599    2.56048954034907    0.07418754447616
H           3.34243032277426    2.63045079506769    0.19007700037585
H           3.18828797971763   -1.10064723633962   -0.00928966916988
H           1.10794415705637   -2.42177574437983   -0.17757495190290
H          -0.97006332114463   -3.30136589538600   -0.32572282038766
H          -3.89972461947866   -2.41876651380531   -0.43471978414170
H          -3.25234644950499   -4.13252557500798   -0.49684190277886
