# ORCA input file
# SCF done        -24.678182556743          0.000540924907
! B3LYP/G D3BJ Opt RIJCOSX def2-SVP def2/J
* xyz 0 1
   C        1.61408        -0.93822         0.00007
   S        2.48252         0.54667         0.00293
   C        1.03079         1.46952         0.00472
   C       -0.06327         0.66335         0.00335
   C        0.27236        -0.72211         0.00067
   S       -1.06493        -1.84131        -0.00127
   C       -2.32789        -0.61868         0.00127
   S       -3.90727        -1.00132         0.00078
   S       -1.76452         1.04642         0.00431
   H        2.13615        -1.87210        -0.00179
   H        1.06770         2.53878         0.00673
*
