# ORCA input file
# SCF done        -21.819576037141          0.000651976193
! B3LYP/G D3BJ Opt RIJCOSX def2-SVP def2/J
* xyz 0 1
   C       -1.25094         1.27194         0.00451
   S       -2.41708        -0.00775         0.00469
   C       -1.22316        -1.24949         0.00065
   C        0.02306        -0.69984         0.00084
   C       -0.00273         0.74104         0.00300
   N        1.31849         1.11445         0.00274
   C        2.03977        -0.05445         0.00058
   N        1.32974        -1.13270        -0.00060
   H       -1.57814         2.29089         0.00605
   H       -1.51997        -2.27711        -0.00094
   H        1.68549         2.04965         0.00371
   H        3.11348        -0.04964        -0.00030
*
