14
 SCF done        -23.162892194918          0.000605282263
C          -0.30855004900744    0.95833117770954   -0.03745948528700
S          -1.37505953415995   -0.37657655023956   -0.18908735077995
C          -0.07369276968107   -1.48275541025579   -0.01643190310756
C           1.11643367958339   -0.85795079583776    0.15968531465498
C           0.98434067735761    0.55866778708348    0.14430463513990
O           1.97571867262794    1.47320876224869    0.32733208097667
C           3.25747945097642    1.13417102614662    0.01889507505796
C           4.27595292876469    1.90355748196538    0.36521609086832
H          -0.68145304248057    1.96073956764784   -0.07673476858859
H          -0.26816801662701   -2.53590120125813   -0.04485811601367
H           2.04295543875197   -1.37973204041251    0.31681528160763
H           3.39105336177913    0.22114569184451   -0.54975390190240
H           4.12538575526767    2.80887885059589    0.92454439512414
H           5.27878344684721    1.64368565276181    0.08717265224955
