# ORCA input file
# SCF done        -23.162892194918          0.000605282263
! B3LYP/G D3BJ Opt RIJCOSX def2-SVP def2/J
* xyz 0 1
   C       -0.30855         0.95833        -0.03746
   S       -1.37506        -0.37658        -0.18909
   C       -0.07369        -1.48276        -0.01643
   C        1.11643        -0.85795         0.15969
   C        0.98434         0.55867         0.14430
   O        1.97572         1.47321         0.32733
   C        3.25748         1.13417         0.01890
   C        4.27595         1.90356         0.36522
   H       -0.68145         1.96074        -0.07673
   H       -0.26817        -2.53590        -0.04486
   H        2.04296        -1.37973         0.31682
   H        3.39105         0.22115        -0.54975
   H        4.12539         2.80888         0.92454
   H        5.27878         1.64369         0.08717
*
