# ORCA input file
# SCF done        -35.757811274073          0.000650091366
! B3LYP/G D3BJ Opt RIJCOSX def2-SVP def2/J
* xyz 0 1
   C        1.55764         1.25209         0.14318
   S        2.77546         0.03949         0.07766
   C        1.58284        -1.19359         0.02013
   C        0.32018        -0.69037         0.05285
   C        0.30369         0.73076         0.12133
   C       -0.97134         1.51009         0.19077
   C       -2.12786         0.67010        -0.34538
   C       -2.16116        -0.68417         0.35777
   C       -0.92679        -1.52037        -0.02728
   C       -1.12345        -2.02965        -1.45512
   O       -0.72729        -1.47237        -2.43488
   O       -1.83434        -3.17028        -1.55244
   H        1.84450         2.28353         0.19319
   H        1.88663        -2.21994        -0.04117
   H       -0.87490         2.43713        -0.37689
   H       -1.16850         1.78124         1.23399
   H       -1.99860         0.51746        -1.41818
   H       -3.07141         1.19423        -0.18488
   H       -3.07306        -1.22473         0.09002
   H       -2.16335        -0.53328         1.44014
   H       -0.83822        -2.38456         0.64434
   H       -2.09987        -3.52203        -0.69244
*
