22
 SCF done        -35.757811274073          0.000650091366
C           1.55764004811717    1.25208802817575    0.14317832430748
S           2.77546392923508    0.03948711383055    0.07765673371195
C           1.58284300016585   -1.19358504282427    0.02013209686918
C           0.32017946211958   -0.69037230534025    0.05285280833589
C           0.30369388892946    0.73076073233181    0.12132889262090
C          -0.97133639742872    1.51008913990463    0.19077333868307
C          -2.12785634284561    0.67009866804219   -0.34537734013531
C          -2.16115829799962   -0.68417297324717    0.35776587204177
C          -0.92678889865566   -1.52037409451661   -0.02727577816309
C          -1.12344857025630   -2.02965396686545   -1.45511600319602
O          -0.72729480919857   -1.47236585609298   -2.43488102471988
O          -1.83433623741267   -3.17028106343954   -1.55243821459063
H           1.84450355808326    2.28352806977135    0.19318947954996
H           1.88662690316211   -2.21993927998299   -0.04117472818118
H          -0.87489504191381    2.43712557192951   -0.37688999640729
H          -1.16850404420611    1.78124435694631    1.23398936692333
H          -1.99859692595724    0.51746045585842   -1.41817595711077
H          -3.07140541978143    1.19423067726760   -0.18487615105906
H          -3.07305755811229   -1.22472995005017    0.09002046950330
H          -2.16335067305136   -0.53327668157850    1.44014341251306
H          -0.83822108672565   -2.38455898358264    0.64434424152613
H          -2.09987048626748   -3.52203261653756   -0.69243984302278
