# ORCA input file
# SCF done        -27.634970186500          0.000534131630
! B3LYP/G D3BJ Opt RIJCOSX def2-SVP def2/J
* xyz 0 1
   C       -1.52694        -1.22837         0.17050
   S       -2.70501         0.00210         0.25648
   C       -1.53033         1.23725         0.16443
   C       -0.25662         0.72642         0.07323
   C       -0.25365        -0.71512         0.07671
   C        0.97579        -1.41508        -0.01117
   C        2.13747        -0.71571        -0.09799
   C        2.11206         0.69990        -0.09966
   F        3.30132         1.33612        -0.18906
   C        0.96961         1.42943        -0.01808
   H       -1.82474        -2.25733         0.19429
   H       -1.83157         2.26511         0.18323
   H        0.97041        -2.49423        -0.00840
   H        3.09430        -1.20836        -0.16744
   H        0.98961         2.50724        -0.02273
*
