21
 SCF done        -32.785882141601          0.000672777070
C           1.45646734530574    1.22336938495393   -0.08529333973223
S           2.65515934029955    0.00162273214920    0.06525206104912
C           1.44176953998363   -1.20962333163966    0.18370804934770
C           0.18464034469921   -0.69647007782382    0.11074239690520
C           0.19386313597265    0.71957928277270   -0.04873233681323
C          -1.06058054355514    1.52546019526514   -0.19668209982284
C          -2.28291979215161    0.73974506920519    0.26994058012663
S          -2.41499919776843    0.74370981072206    2.09651938293254
C          -2.28788419212631   -0.69667979045268   -0.28408678634138
O          -2.34901350769006   -0.68107313551869   -1.69013162164416
C          -1.07978151641969   -1.49193849829091    0.22463777420987
H           1.75391527669332    2.24688576031832   -0.19738193736789
H           1.72763682768653   -2.23532665015306    0.30474152111582
H          -1.19910954758993    1.79883014500636   -1.24912685742577
H          -0.98175845284674    2.45816702864858    0.36700301459702
H          -3.19497202612312    1.24315423782131   -0.05989408981493
H          -1.13856152158618    0.44680214032557    2.33107472441648
H          -3.21071559882679   -1.19308464298032    0.03550334784068
H          -1.48941256969738   -0.40360260743514   -2.02977663993085
H          -1.00072995610237   -2.41780589177108   -0.34930174796917
H          -1.24826338815669   -1.76935116112288    1.26875460432161
