# ORCA input file
# SCF done        -52.341474303707          0.000949242963
! B3LYP/G D3BJ Opt RIJCOSX def2-SVP def2/J
* xyz 0 1
   C        2.32321        -1.23624        -0.30531
   C        1.65293        -0.03826        -0.10999
   O        2.29870         1.15577         0.11506
   C        3.67130         1.16848         0.44450
   C        3.95369         0.62667         1.84307
   C        0.24684        -0.01264        -0.16549
   O       -0.56062         1.08074        -0.03716
   C       -0.10797         2.40421        -0.26431
   C        0.22245         3.12754         1.03671
   C       -0.43164        -1.23199        -0.35633
   O       -1.80136        -1.29629        -0.43516
   C       -2.53445        -0.88473         0.71111
   C       -4.01329        -1.03378         0.39064
   C        0.26352        -2.41403        -0.54112
   C        1.65315        -2.43466        -0.54189
   C        2.43425        -3.64455        -0.75664
   C        1.96667        -4.83777        -1.10583
   H        3.40154        -1.25452        -0.28841
   H        3.94096         2.22781         0.39553
   H        4.26199         0.63360        -0.30951
   H        3.64939        -0.41403         1.92434
   H        3.40287         1.20313         2.58267
   H        5.01626         0.70321         2.05727
   H       -0.95453         2.90076        -0.75329
   H        0.74522         2.41617        -0.94455
   H        0.47261         4.16339         0.82407
   H        1.06741         2.65255         1.52590
   H       -0.63480         3.09929         1.70530
   H       -2.30155         0.15451         0.96580
   H       -2.26100        -1.52503         1.56456
   H       -4.27560        -0.38914        -0.44423
   H       -4.60874        -0.75891         1.25707
   H       -4.23397        -2.06218         0.11547
   H       -0.31146        -3.31196        -0.69425
   H        3.50265        -3.52189        -0.62071
   H        0.91966        -5.02486        -1.26941
   H        2.62517        -5.67777        -1.24616
*
