37
 SCF done        -52.341474303707          0.000949242963
C           2.32320612756746   -1.23623673243478   -0.30530721041710
C           1.65293400351212   -0.03826328744880   -0.10999185710828
O           2.29870446101252    1.15576655749805    0.11505564890740
C           3.67129527805327    1.16848258758039    0.44450463832655
C           3.95369124668263    0.62667095281268    1.84306544607236
C           0.24684322865868   -0.01263960704690   -0.16548846415237
O          -0.56061670793210    1.08073520641872   -0.03715530580715
C          -0.10797164209542    2.40421283222885   -0.26430695723992
C           0.22244832732650    3.12754472789647    1.03671205494335
C          -0.43163910082213   -1.23198632407048   -0.35632851776370
O          -1.80135890894770   -1.29628501267260   -0.43515722429391
C          -2.53444940717342   -0.88473484097742    0.71110859267830
C          -4.01329137872171   -1.03378484211227    0.39064033577471
C           0.26351902680883   -2.41402611472429   -0.54111824158508
C           1.65314889554454   -2.43465528075852   -0.54188744937820
C           2.43425135079902   -3.64454653320607   -0.75664441758699
C           1.96666889462621   -4.83777141365631   -1.10583478616145
H           3.40154140880544   -1.25451823192754   -0.28840563304854
H           3.94095890094889    2.22781402282070    0.39553232607853
H           4.26199252211174    0.63359710241858   -0.30950789088664
H           3.64938654221816   -0.41402612096029    1.92434238034924
H           3.40287389145480    1.20312575630172    2.58267057411534
H           5.01625899978396    0.70320545323845    2.05727136493476
H          -0.95452809297595    2.90075958428128   -0.75329138990826
H           0.74522228850024    2.41617082039437   -0.94455285030286
H           0.47261223047686    4.16339467682184    0.82407436804755
H           1.06740753823186    2.65254513715392    1.52589884518954
H          -0.63480266671142    3.09929062678415    1.70529942250773
H          -2.30155230347102    0.15450811376397    0.96580000376571
H          -2.26099845248320   -1.52503239318610    1.56455945805177
H          -4.27559877524402   -0.38913616706160   -0.44423115338028
H          -4.60874337437174   -0.75890800390881    1.25707154601868
H          -4.23396587739484   -2.06218179872993    0.11547278906299
H          -0.31145535900914   -3.31195985191314   -0.69425234151231
H           3.50264774855289   -3.52189290024039   -0.62070598099668
H           0.91965566098339   -5.02485748549680   -1.26940831920351
H           2.62517347469478   -5.67777121587947   -1.24616380408691
