13
 SCF done        -24.284461925109          0.000560066363
C           1.25377781173937   -1.27956351810124   -0.00228356337501
S           2.49077527569743   -0.06096485865613   -0.00354466125171
C           1.32030996880198    1.21602301817470   -0.00286443229674
C           0.06354187809611    0.71807774646228   -0.00047367302614
C           0.02340895201083   -0.71623003216308   -0.00042172043427
C          -1.36994475038352   -1.12281885154598    0.00182814648013
C          -2.15200102752966   -0.02989904045368    0.00232267763972
C          -1.33409343641453    1.21418673462309    0.00224724828376
O          -1.72788006034981    2.35537452997618    0.00245006475403
H           1.53781753171329   -2.31321386960867   -0.00261821669216
H           1.65036547422934    2.23597966330460   -0.00338931819265
H          -1.69529804083568   -2.14853032261398    0.00245797188216
H          -3.22674957677516   -0.00431119939811    0.00321947622889
