# ORCA input file
# SCF done        -37.125924365083          0.000340237986
! B3LYP/G D3BJ Opt RIJCOSX def2-SVP def2/J
* xyz 0 1
   C       -0.78882         1.26598        -0.14346
   S       -2.01752         0.08194        -0.22897
   C       -0.90508        -1.21458        -0.20372
   C        0.38613        -0.75561        -0.13133
   C        0.45364         0.68535        -0.09557
   N        1.64772         1.32287        -0.01962
   C        2.71431         0.57699         0.01582
   C        4.03966         1.29314         0.10493
   N        3.95219         2.73721         0.13102
   C        2.64711        -0.86431        -0.02555
   C        3.90024        -1.70441         0.00923
   N        3.67769        -3.13391        -0.01845
   N        1.51563        -1.50464        -0.09545
   H       -1.03536         2.30779        -0.13252
   H       -1.24791        -2.22808        -0.24274
   H        4.66119         1.00116        -0.74911
   H        4.55907         0.96454         1.01266
   H        3.48368         3.06241        -0.70893
   H        3.36975         3.02487         0.91133
   H        4.46722        -1.46171         0.91509
   H        4.52877        -1.43815        -0.84845
   H        3.09808        -3.40038         0.77141
   H        3.15223        -3.37721        -0.85248
*
