42
 SCF done        -66.041692899191          0.000832343971
N          -0.89677405885564   -0.88862532917382    0.28638085761042
C          -2.18747896018209   -0.46599109463710    0.39137342840806
O          -3.12167677216923   -1.14685861472240    0.74267675045100
C          -2.20942698624758    1.01889799417364    0.00762908321039
C          -0.77667280958253    1.29215397800124   -0.32690051191891
C          -0.03935266896265    0.12368253897925   -0.12241239038451
C           1.32182506433687    0.07571868541169   -0.33675905338092
C           1.96424358715686    1.23343756930543   -0.76786339128177
C           1.22807534729157    2.39532004679297   -0.97128838305719
C          -0.14157784289702    2.43768288079766   -0.75082076099809
C           3.43894506192495    1.22341977734295   -1.03629067861080
C          -2.72218266896334    1.83911867903110    1.21395550636926
C          -2.05799727543563    1.29860537646265    2.48129231252372
O          -0.87091629990760    1.30027239138742    2.71032704174183
N          -3.04337218631678    0.77720417623193    3.28874358415936
C          -4.30496023029748    0.96073503405441    2.71027874522634
C          -4.17217963660796    1.61631286645299    1.48382519295055
C          -5.28295857699737    1.92155176740582    0.73181234952145
C          -6.53468863487148    1.56954502022441    1.21772179102612
C          -6.67665336746670    0.91862536663292    2.43529237411930
C          -8.03122000772895    0.52488584225963    2.94228444038698
C          -5.54925840956090    0.61327351826031    3.19565527602760
C          -2.84068162197799    0.08577555591642    4.48104589433963
C          -1.69383439646684   -0.02285276482364    5.13435436598788
H          -0.59832646308118   -1.81585542874370    0.54442353133554
H          -2.88226498726243    1.18277210458813   -0.83875530443680
H           1.87965789967701   -0.83342603097599   -0.16906701580163
H           1.73851919410471    3.28738451508197   -1.30372500211647
H          -0.69221419413767    3.35337652885701   -0.90884244164775
H           3.92223373475432    0.39267910447599   -0.52820179400873
H           3.89687418797673    2.15341736708957   -0.70668701967677
H           3.62180727073929    1.12131737250153   -2.10685024639998
H          -2.46353302625813    2.89031809610692    1.06167362228138
H          -5.18637920915762    2.42533159951625   -0.21868480441434
H          -7.41407699502041    1.80291404766314    0.63600008260935
H          -8.81801401224424    0.97101955107943    2.33923161238621
H          -8.16131393167894    0.83836860328239    3.97727479123029
H          -8.14204877260886   -0.55908367430838    2.90530941431557
H          -5.67366047905531    0.10976996912914    4.14210343148058
H          -3.73937730958336   -0.39024506722729    4.84681210646425
H          -0.78742823413872    0.43595175453385    4.78676140476276
H          -1.64650032223800   -0.59499167441774    6.04363980720798
