25
 SCF done        -31.811082634887          0.000359280252
C           1.36945614285780    1.19183317056577   -0.28568822175786
S           2.56810228983976   -0.01853280343368   -0.04100177767755
C           1.34765259654744   -1.19904355516943    0.24026601864427
C           0.09432709001569   -0.68303195327098    0.15053498748856
C           0.10660573868527    0.70743659148188   -0.15760917832371
C          -1.14511685430909    1.50105307559578   -0.36242039769186
C          -2.37100897045097    0.77662247919584    0.20397794152042
C          -2.42766855720857    0.93997054256804    1.72265464139856
C          -2.37737487520805   -0.70517702528230   -0.20874027220672
C          -2.39986678732202   -0.86756167932897   -1.72826803180941
C          -1.17228700747700   -1.44399985136222    0.38157618545027
H           1.67449791749307    2.19361456201757   -0.51551341141648
H           1.63377558767502   -2.20880495580515    0.45862880328672
H          -1.28201325322794    1.67438698261320   -1.43393129628933
H          -1.04474143291367    2.48204329419099    0.10849061999304
H          -3.26904296601586    1.24291129390655   -0.21845372147382
H          -1.48732408039183    0.64365825324903    2.18022924631276
H          -3.22849723043398    0.33686907736689    2.14590643526530
H          -2.61361992671253    1.98072990041457    1.97992989437783
H          -3.29031212659185   -1.15970594481399    0.19429804407604
H          -1.44797556687725   -0.57373847683746   -2.16358869528628
H          -3.18838232888523   -0.26116415932292   -2.16934419222431
H          -2.58291065666642   -1.90769447354496   -1.99057817381086
H          -1.09423483747014   -2.44013270653619   -0.06058824065204
H          -1.31444990495183   -1.58200163845813    1.45743279280613
