# ORCA input file
# SCF done        -31.811082634887          0.000359280252
! B3LYP/G D3BJ Opt RIJCOSX def2-SVP def2/J
* xyz 0 1
   C        1.36946         1.19183        -0.28569
   S        2.56810        -0.01853        -0.04100
   C        1.34765        -1.19904         0.24027
   C        0.09433        -0.68303         0.15053
   C        0.10661         0.70744        -0.15761
   C       -1.14512         1.50105        -0.36242
   C       -2.37101         0.77662         0.20398
   C       -2.42767         0.93997         1.72265
   C       -2.37737        -0.70518        -0.20874
   C       -2.39987        -0.86756        -1.72827
   C       -1.17229        -1.44400         0.38158
   H        1.67450         2.19361        -0.51551
   H        1.63378        -2.20880         0.45863
   H       -1.28201         1.67439        -1.43393
   H       -1.04474         2.48204         0.10849
   H       -3.26904         1.24291        -0.21845
   H       -1.48732         0.64366         2.18023
   H       -3.22850         0.33687         2.14591
   H       -2.61362         1.98073         1.97993
   H       -3.29031        -1.15971         0.19430
   H       -1.44798        -0.57374        -2.16359
   H       -3.18838        -0.26116        -2.16934
   H       -2.58291        -1.90769        -1.99058
   H       -1.09423        -2.44013        -0.06059
   H       -1.31445        -1.58200         1.45743
*
