# ORCA input file
# SCF done        -40.351115366132          0.000907527579
! B3LYP/G D3BJ Opt RIJCOSX def2-SVP def2/J
* xyz 0 1
   C        2.80396         0.88152         0.07419
   C        3.52237        -0.28204         0.07266
   C        2.86756        -1.52585         0.02925
   C        1.48389        -1.54671         0.01527
   C        0.71869        -0.37403         0.02551
   C        1.39961         0.86717         0.04570
   C        0.66321         2.08396         0.03783
   C       -0.68851         2.07882         0.00961
   C       -1.41763         0.85560        -0.00105
   C       -0.72595        -0.37907         0.01299
   C       -1.48959        -1.55719         0.01490
   C       -2.86229        -1.52148        -0.00137
   C       -3.53789        -0.30097        -0.02249
   C       -2.82169         0.86776        -0.02150
   C        3.67521        -2.73971         0.00521
   C        3.26266        -3.95769        -0.32292
   H        3.31107         1.83596         0.09864
   H        4.60277        -0.25489         0.09428
   H        0.98853        -2.50346         0.00636
   H        1.21477         3.01351         0.05123
   H       -1.24688         3.00426        -0.00171
   H       -1.00010        -2.51817         0.03319
   H       -3.42504        -2.44373         0.00248
   H       -4.61770        -0.28301        -0.03764
   H       -3.33036         1.82155        -0.03510
   H        4.71789        -2.59143         0.26142
   H        2.24940        -4.16860        -0.61743
   H        3.93515        -4.79803        -0.31967
*
