26
 SCF done        -37.610842277533          0.000512060095
C           0.07000700012103    1.01216005608425    0.26028789536206
N          -0.79295292237393   -0.03319925096948    0.18083787318929
C          -0.10334579418373   -1.20204395874794    0.00770377733766
C          -0.80106363292634   -2.44951226132571   -0.06322996707636
C          -0.27538974473826   -3.66079857076086    0.20208956316782
C          -0.98026129796789   -4.90109955407687    0.09887486254113
N          -0.38991682253157   -6.08011964650035    0.46673402101139
C          -1.24962258291399   -7.10991441370548    0.27476052560982
C          -2.41956747112596   -6.60063372832346   -0.22853078339408
C          -2.25633894440296   -5.21283460869568   -0.34156291938502
C           1.25440805534807   -0.87388054135781   -0.04671970926097
C           1.34046971849326    0.52969769920866    0.12264575504153
C           2.35239260680868   -1.76770500548591   -0.33412419247077
C           3.62929781019907   -1.51905334487081   -0.06303449363883
H          -0.27838501096394    2.01635627036909    0.40366195588823
H          -1.79337212259070    0.02573140858081    0.27344954378456
H          -1.84997633102381   -2.38319094265932   -0.32502929576199
H           0.74933885361401   -3.73085372750986    0.54100447496726
H           0.54504287113971   -6.15792709329490    0.83104390000547
H          -0.97608498847284   -8.12091151774119    0.50473945143652
H          -3.29489570003092   -7.16237882078056   -0.48889679986288
H          -2.98643772314420   -4.51964507322437   -0.70876399701892
H           2.24032595183154    1.11116230774921    0.11395286903196
H           2.08228020355037   -2.68897921451564   -0.83499892437041
H           3.93961569980373   -0.62105979635190    0.44314901028604
H           4.41024231847987   -2.20913667109378   -0.33353439642132
