11
 SCF done        -25.100773787928          0.000272507419
C          -0.17985567727116    1.06419648216043   -0.07937321572380
O          -1.02913690343819    0.03561340225248    0.11075544164452
C          -0.31529838492171   -1.07966850841129    0.17092660448496
C           1.01821053818286   -0.78493647384392    0.01779053943429
C           1.10323250883494    0.62595197983812   -0.14672337322970
N           2.09529674951566   -1.70746632219290    0.02231734695665
O           1.82128563790319   -2.87664185967537    0.19794341930874
O           3.21050347558080   -1.26662034664153   -0.14984683174985
H          -0.60446886002371    2.04540658149442   -0.14972030396165
H          -0.81696323036148   -2.01550027836488    0.31949771436592
H           1.99867414599881    1.19252534338443   -0.29041734153007
