# ORCA input file
# SCF done        -25.100773787928          0.000272507419
! B3LYP/G D3BJ Opt RIJCOSX def2-SVP def2/J
* xyz 0 1
   C       -0.17986         1.06420        -0.07937
   O       -1.02914         0.03561         0.11076
   C       -0.31530        -1.07967         0.17093
   C        1.01821        -0.78494         0.01779
   C        1.10323         0.62595        -0.14672
   N        2.09530        -1.70747         0.02232
   O        1.82129        -2.87664         0.19794
   O        3.21050        -1.26662        -0.14985
   H       -0.60447         2.04541        -0.14972
   H       -0.81696        -2.01550         0.31950
   H        1.99867         1.19253        -0.29042
*
