# ORCA input file
# SCF done        -14.017147592734          0.000582289599
! B3LYP/G D3BJ Opt RIJCOSX def2-SVP def2/J
* xyz 0 1
   C       -0.31002         1.11220         0.00145
   N       -1.10350         0.00976         0.00103
   C       -0.32644        -1.10433         0.00078
   C        0.98291        -0.71044         0.00025
   C        0.99336         0.69896         0.00083
   H       -0.72553         2.10081         0.00189
   H       -2.10957         0.01722         0.00095
   H       -0.75657        -2.08666         0.00068
   H        1.84108        -1.35287        -0.00047
   H        1.86096         1.32859         0.00065
*
