10
 SCF done        -14.017147592734          0.000582289599
C          -0.31001517177301    1.11220352174190    0.00145300977094
N          -1.10350474265356    0.00976279654229    0.00103095387888
C          -0.32644367491109   -1.10432828081380    0.00078181677015
C           0.98291491550924   -0.71044424762048    0.00025203767262
C           0.99336377752481    0.69896436945340    0.00083304409522
H          -0.72552896695190    2.10080823630243    0.00189332571070
H          -2.10956966460128    0.01721794320028    0.00095458492159
H          -0.75657093253245   -2.08666002486934    0.00067503703993
H           1.84108267786544   -1.35286793791757   -0.00046868731601
H           1.86096178252380    1.32859362398090    0.00065487745598
