28
 SCF done        -44.082375355117          0.000379299199
C           3.12617562211351   -0.59657950769993   -0.07242848461496
S           1.93309598028814   -1.85166882719343   -0.03780334459302
C           2.60086095152622    0.65812267773651   -0.03579320089510
C           1.19279934592224    0.63452870231185    0.01015975127067
C           0.07274760664551    1.57445954931590    0.10268322423093
C           0.13392219402397    2.92080611931698    0.08291686822121
C          -1.09650410086914    3.76744483821900    0.28620809678890
N          -0.76434233062856    5.13147771170193    0.67654316061436
C           1.41902932539866    3.65688749539516   -0.18309630381702
N           2.30772975232489    3.61456336551282    0.97991544582322
C           0.69749284866838   -0.66694171357812    0.03129330527827
C          -0.71785920840330   -0.61487093424096    0.12941203107840
S          -2.03241302595704   -1.71204093875334    0.16381273789401
C          -1.11748741811404    0.71980477595921    0.18549106370212
C          -2.52254411703521    0.83434822583768    0.23255598983365
C          -3.13523487843432   -0.38172199691015    0.23651956545591
H           4.15970171929116   -0.87841261169011   -0.11450425157338
H           3.20105023960888    1.54651740230893   -0.00588753063704
H          -1.75148701206530    3.26893804233675    1.01637988261555
H          -1.63950835736890    3.82398970032523   -0.66558906835732
H          -0.37870324029310    5.14189297726112    1.61532891349337
H          -1.59988952279341    5.70487726384617    0.68232952193968
H           1.16103405295007    4.68270457484858   -0.48291232670340
H           1.94508194915339    3.17109157344563   -1.01076121005039
H           1.83778456836628    4.00844876529379    1.78811151852650
H           3.12938987768499    4.18284091496061    0.79987094591922
H          -3.08048979579966    1.75218504391646    0.25287010278112
H          -4.18641302620347   -0.58808318978402    0.27507359577404
