# ORCA input file
# SCF done        -44.082375355117          0.000379299199
! B3LYP/G D3BJ Opt RIJCOSX def2-SVP def2/J
* xyz 0 1
   C        3.12618        -0.59658        -0.07243
   S        1.93310        -1.85167        -0.03780
   C        2.60086         0.65812        -0.03579
   C        1.19280         0.63453         0.01016
   C        0.07275         1.57446         0.10268
   C        0.13392         2.92081         0.08292
   C       -1.09650         3.76744         0.28621
   N       -0.76434         5.13148         0.67654
   C        1.41903         3.65689        -0.18310
   N        2.30773         3.61456         0.97992
   C        0.69749        -0.66694         0.03129
   C       -0.71786        -0.61487         0.12941
   S       -2.03241        -1.71204         0.16381
   C       -1.11749         0.71980         0.18549
   C       -2.52254         0.83435         0.23256
   C       -3.13523        -0.38172         0.23652
   H        4.15970        -0.87841        -0.11450
   H        3.20105         1.54652        -0.00589
   H       -1.75149         3.26894         1.01638
   H       -1.63951         3.82399        -0.66559
   H       -0.37870         5.14189         1.61533
   H       -1.59989         5.70488         0.68233
   H        1.16103         4.68270        -0.48291
   H        1.94508         3.17109        -1.01076
   H        1.83778         4.00845         1.78811
   H        3.12939         4.18284         0.79987
   H       -3.08049         1.75219         0.25287
   H       -4.18641        -0.58808         0.27507
*
