# ORCA input file
# SCF done        -37.933898028071          0.000305542410
! B3LYP/G D3BJ Opt RIJCOSX def2-SVP def2/J
* xyz 0 1
   C        1.80827         0.49237         0.15267
   O        1.49553        -0.83078         0.19701
   C        0.15293        -0.88320         0.10786
   C       -0.93438        -1.79107         0.07846
   C       -0.89978        -3.26137         0.15401
   O       -1.88396        -3.97190         0.11794
   N        0.35464        -3.76125         0.26951
   C       -2.05546        -0.97135        -0.03859
   O       -1.71750         0.34955        -0.08081
   C       -0.37770         0.39649         0.00822
   C        0.71059         1.29633         0.03799
   C       -3.43565        -1.36308        -0.11270
   C       -4.44678        -0.50353        -0.21896
   H        2.84971         0.73713         0.21155
   H        1.16470        -3.16830         0.29938
   H        0.47230        -4.75828         0.32827
   H        0.69743         2.36415        -0.01584
   H       -3.58759        -2.43186        -0.07341
   H       -4.27968         0.56001        -0.25556
   H       -5.46648        -0.84108        -0.27022
*
