20
 SCF done        -37.933898028071          0.000305542410
C           1.80826889659350    0.49236671955013    0.15266551776221
O           1.49552541633180   -0.83078300977516    0.19700699421469
C           0.15292904915617   -0.88320027739258    0.10786136428791
C          -0.93438084418545   -1.79106734291146    0.07846356052070
C          -0.89978412523614   -3.26136536158182    0.15400541174731
O          -1.88395693184804   -3.97190031359890    0.11794469646696
N           0.35464392360433   -3.76124592060361    0.26951257943048
C          -2.05546153656688   -0.97135443713352   -0.03859241865415
O          -1.71749733071124    0.34954796796073   -0.08081369603949
C          -0.37770362445430    0.39649182723461    0.00821713957141
C           0.71058926510076    1.29633061305873    0.03798577719062
C          -3.43565389845533   -1.36307677271737   -0.11269508862934
C          -4.44678216647147   -0.50352501192774   -0.21896472214847
H           2.84971052924584    0.73712559026374    0.21155153230726
H           1.16469912587556   -3.16830419006448    0.29937690821657
H           0.47230171561418   -4.75827878148873    0.32826610062361
H           0.69743129317766    2.36414583928479   -0.01584366410328
H          -3.58758978399415   -2.43185960133547   -0.07341024388227
H          -4.27967666379327    0.56001202320645   -0.25555812334665
H          -5.46648230898355   -0.84107956002833   -0.27021962553608
