12
 SCF done        -22.167433405988          0.000611947966
C          -1.22307954040637   -1.25181223786035    0.00153865292431
S          -2.43393127754454   -0.02217963324656    0.00490099339738
C          -1.28287559396263    1.26021834355224    0.00659382671727
C          -0.01368940178682    0.76234166793010    0.00430967593189
C           0.00513122777065   -0.67265155778881    0.00145032799107
O           1.27969259147249   -1.13096251607885   -0.00074576374419
C           2.06602696728309   -0.01568080521322    0.00070209226094
C           1.36842319934393    1.14121041762618    0.00361341102258
H          -1.50048669088000   -2.28487712042338   -0.00020791287801
H          -1.62229761212068    2.27531738804165    0.00896693612066
H           3.12468842977220   -0.19315840713481   -0.00065159586586
H           1.76789770105869    2.13396446059581    0.00514935612197
