# ORCA input file
# SCF done        -22.167433405988          0.000611947966
! B3LYP/G D3BJ Opt RIJCOSX def2-SVP def2/J
* xyz 0 1
   C       -1.22308        -1.25181         0.00154
   S       -2.43393        -0.02218         0.00490
   C       -1.28288         1.26022         0.00659
   C       -0.01369         0.76234         0.00431
   C        0.00513        -0.67265         0.00145
   O        1.27969        -1.13096        -0.00075
   C        2.06603        -0.01568         0.00070
   C        1.36842         1.14121         0.00361
   H       -1.50049        -2.28488        -0.00021
   H       -1.62230         2.27532         0.00897
   H        3.12469        -0.19316        -0.00065
   H        1.76790         2.13396         0.00515
*
