# ORCA input file
# SCF done        -32.618669874193          0.000797315562
! B3LYP/G D3BJ Opt RIJCOSX def2-SVP def2/J
* xyz 0 1
   C       -1.18474        -1.25208         0.13987
   S       -2.40870        -0.04204         0.02787
   C       -1.28901         1.24816        -0.10081
   C       -0.00494         0.77161        -0.06363
   C        0.03658        -0.66071         0.07451
   O        1.31423        -1.09967         0.10880
   C        2.07878         0.02277        -0.00476
   N        3.48728        -0.13732         0.00270
   O        4.14477         0.88063        -0.10658
   O        3.93287        -1.25720         0.11616
   C        1.35782         1.17846        -0.11193
   H       -1.44583        -2.28415         0.24160
   H       -1.63535         2.25621        -0.19556
   H        1.76181         2.16475        -0.20993
*
