25
 SCF done        -39.128238051346          0.000324643269
C           3.39469144043080    0.21544085371472    0.00407466693391
C           3.05229155502125   -1.13293334854216    0.06360362194002
C           1.73150228983970   -1.53640535191633    0.06776738189707
C           0.74465098254262   -0.56084874248702    0.01114372092799
C           1.10641063795467    0.80060636895537   -0.04775289836794
C           2.42890817609841    1.20495556851436   -0.05253663839919
O           0.01270869838235    1.60997892184875   -0.09654365162812
C          -1.07267276907873    0.78614308528669   -0.07090818755483
C          -0.69238174528715   -0.56985486910055   -0.00442179690635
C          -1.67488962343385   -1.55109182217459    0.03223489012459
C          -2.99506193735455   -1.15821268716438    0.00232789960006
C          -3.37599897321203    0.19210373339936   -0.06741442491799
C          -2.39343711341913    1.18157220695346   -0.10244651218429
C          -4.79870854492137    0.50706617951752   -0.09866009329285
C          -5.34484571525465    1.70508325649089   -0.27271566986017
H           4.43723698090968    0.49599847665986    0.00212648034038
H           3.83672897684985   -1.87368921012811    0.10716350660899
H           1.46679901736208   -2.58167167356227    0.11376309255925
H           2.68833699051861    2.25038394049593   -0.09857791971571
H          -1.40629300680337   -2.59518830317221    0.08430115605009
H          -3.76974917482630   -1.91114417651070    0.02999632860846
H          -2.64372101973341    2.22825975027384   -0.14678789977845
H          -5.45013959766591   -0.34936758264575    0.02615320503310
H          -4.76166276418937    2.59802062119716   -0.41542638283576
H          -6.41332376073013    1.83535480409616   -0.28312387518228
