# ORCA input file
# SCF done        -22.332689163000          0.000444823648
! B3LYP/G D3BJ Opt RIJCOSX def2-SVP def2/J
* xyz 0 1
   C        0.12261         1.32857         0.08575
   S       -0.91371         0.04116        -0.39321
   C        0.40970        -1.08515        -0.31396
   C        1.56170        -0.47369         0.08467
   C        1.39237         0.90921         0.30924
   S        0.23754        -2.80403        -0.60757
   C       -1.16784        -2.85964        -1.66780
   C       -1.76147        -3.98981        -2.00920
   H       -0.28301         2.31741         0.16082
   H        2.49184        -0.99836         0.20164
   H        2.18944         1.56227         0.61506
   H       -1.48820        -1.89228        -2.02108
   H       -1.42183        -4.94279        -1.64268
   H       -2.60540        -3.99216        -2.67580
*
