14
 SCF done        -22.332689163000          0.000444823648
C           0.12260765210593    1.32857253631392    0.08575386313238
S          -0.91370745041205    0.04115535107660   -0.39321380719032
C           0.40970318931605   -1.08514521059791   -0.31395739063262
C           1.56169645629245   -0.47368608681126    0.08467368621236
C           1.39236954264760    0.90920907609426    0.30923843468574
S           0.23754273404244   -2.80403159139849   -0.60756918523588
C          -1.16783642693199   -2.85964395115086   -1.66779996659580
C          -1.76147222446339   -3.98980778162771   -2.00920285126047
H          -0.28301464322514    2.31740532519674    0.16081703902760
H           2.49183572335352   -0.99836185366293    0.20163633349679
H           2.18944201409989    1.56226976075339    0.61506327281401
H          -1.48820392521035   -1.89227545225245   -2.02107987812836
H          -1.42182694439825   -4.94278659193683   -1.64267983000594
H          -2.60539569721637   -3.99216352999615   -2.67579972031945
