# ORCA input file
# SCF done        -30.245884140468          0.000360439107
! B3LYP/G D3BJ Opt RIJCOSX def2-SVP def2/J
* xyz 0 1
   N       -0.73931         1.21508         0.43751
   C        0.05913         0.74167        -0.68268
   C        1.54071         0.97875        -0.43140
   S        2.22472        -0.52846         0.35791
   C        0.59939        -1.31957         0.50271
   C       -0.22228        -0.76595        -0.66365
   N       -1.64311        -0.90186        -0.49219
   S       -2.31655         0.51148         0.25869
   C       -2.22859        -2.13373        -0.29887
   C       -3.42289        -2.32977         0.24351
   H       -0.83115         2.22504         0.46643
   H       -0.25048         1.18002        -1.64511
   H        1.70049         1.82362         0.23694
   H        2.08496         1.13949        -1.36035
   H        0.14622        -1.03793         1.45436
   H        0.73252        -2.39766         0.45920
   H        0.08393        -1.23939        -1.60389
   H       -1.64375        -2.94716        -0.70717
   H       -3.99331        -1.51228         0.64950
   H       -3.85516        -3.31039         0.29331
*
