20
 SCF done        -30.245884140468          0.000360439107
N          -0.73931237676361    1.21508078312171    0.43751496186434
C           0.05912932729876    0.74167291683737   -0.68268236099486
C           1.54070834463956    0.97874776761627   -0.43139642195939
S           2.22472314425891   -0.52846222034466    0.35790820266199
C           0.59939497983213   -1.31957353222086    0.50270749307508
C          -0.22227901193273   -0.76594702632917   -0.66365176300560
N          -1.64310816957594   -0.90186117944517   -0.49219042966226
S          -2.31655152135956    0.51148153911610    0.25869391643972
C          -2.22859047054261   -2.13372618094631   -0.29886695558533
C          -3.42288727408287   -2.32977135957281    0.24350800275112
H          -0.83114965836678    2.22504049343182    0.46642776257262
H          -0.25048202349026    1.18002195758073   -1.64510944433873
H           1.70049491730586    1.82362179679979    0.23693817044352
H           2.08495588784566    1.13948713477750   -1.36035355916205
H           0.14621858659559   -1.03792954984315    1.45436249966961
H           0.73252242536111   -2.39766460829161    0.45919989654854
H           0.08393472600189   -1.23938683692487   -1.60388987383262
H          -1.64375233232571   -2.94716316863586   -0.70716754476434
H          -3.99330870696229   -1.51228240508011    0.64949904397142
H          -3.85516079373717   -3.31038632164674    0.29330840330728
