22
 SCF done        -35.961754032504          0.000378547338
C           3.43401900141039    0.12730848286474   -0.03082698347080
C           3.00109665780994    1.44201505783214   -0.00349627886598
C           1.64465801433197    1.75521620662901    0.01194482918850
C           0.73196764304594    0.72108278253955   -0.00162794567658
C           1.17443593282768   -0.61425032858683   -0.02766508161460
C           2.51904765821471   -0.92070779886781   -0.04213578113727
C          -0.00174985958183   -1.52455879485766   -0.03895928159839
O          -0.00270583592519   -2.73343630971073   -0.05518714946230
C          -1.17648348752329   -0.61245908547662   -0.02288909939084
C          -0.73187838108655    0.72219929961018    0.00125676783924
C          -1.64292356035488    1.75772776805334    0.01820136682134
C          -2.99989149626617    1.44660141793013    0.00815491988035
C          -3.43492202434838    0.13255572175325   -0.01714509638703
C          -2.52160842840863   -0.91685785785576   -0.03192319471768
H           4.49240470753438   -0.08632968065073   -0.04404612827025
H           3.72814948427027    2.24100726788469    0.00560782445851
H           1.32176335720082    2.78530802776847    0.03324846055081
H           2.84452300325933   -1.94966126850051   -0.06369648933816
H          -1.31837456714832    2.78733143780017    0.03798404843474
H          -3.72567729858488    2.24671089743190    0.01997976879164
H          -4.49368297293671   -0.07947296283046   -0.02600988962412
H          -2.84873754774063   -1.94532028076045   -0.05198958641114
