# ORCA input file
# SCF done        -35.961754032504          0.000378547338
! B3LYP/G D3BJ Opt RIJCOSX def2-SVP def2/J
* xyz 0 1
   C        3.43402         0.12731        -0.03083
   C        3.00110         1.44202        -0.00350
   C        1.64466         1.75522         0.01194
   C        0.73197         0.72108        -0.00163
   C        1.17444        -0.61425        -0.02767
   C        2.51905        -0.92071        -0.04214
   C       -0.00175        -1.52456        -0.03896
   O       -0.00271        -2.73344        -0.05519
   C       -1.17648        -0.61246        -0.02289
   C       -0.73188         0.72220         0.00126
   C       -1.64292         1.75773         0.01820
   C       -2.99989         1.44660         0.00815
   C       -3.43492         0.13256        -0.01715
   C       -2.52161        -0.91686        -0.03192
   H        4.49240        -0.08633        -0.04405
   H        3.72815         2.24101         0.00561
   H        1.32176         2.78531         0.03325
   H        2.84452        -1.94966        -0.06370
   H       -1.31837         2.78733         0.03798
   H       -3.72568         2.24671         0.01998
   H       -4.49368        -0.07947        -0.02601
   H       -2.84874        -1.94532        -0.05199
*
