12
 SCF done        -24.926871152540          0.000306138663
C          -0.23579050128452    1.09099195965534    0.12167244192735
O          -1.06541391129035    0.04813327237305    0.05955107298603
C          -0.31284347214956   -1.06201056405683   -0.04941033403004
C           1.00638167677186   -0.74750328518397   -0.06376768440080
C           1.07050883362200    0.67310141132695    0.05064233838936
C           2.32164892858095    1.45338751051068    0.06565465761550
O           3.39870090001072    0.97216593001429   -0.14660138824976
O           2.19794367408885    2.76994244438124    0.33675837377218
H          -0.69140056058203    2.06087152722635    0.19740889695833
H          -0.82889884054421   -1.99920751262689   -0.10773712579357
H           1.84657204271170   -1.40416822109287   -0.14086649423108
H           1.28788123006459    3.03629552747266    0.51066524505650
