# ORCA input file
# SCF done        -24.926871152540          0.000306138663
! B3LYP/G D3BJ Opt RIJCOSX def2-SVP def2/J
* xyz 0 1
   C       -0.23579         1.09099         0.12167
   O       -1.06541         0.04813         0.05955
   C       -0.31284        -1.06201        -0.04941
   C        1.00638        -0.74750        -0.06377
   C        1.07051         0.67310         0.05064
   C        2.32165         1.45339         0.06565
   O        3.39870         0.97217        -0.14660
   O        2.19794         2.76994         0.33676
   H       -0.69140         2.06087         0.19741
   H       -0.82890        -1.99921        -0.10774
   H        1.84657        -1.40417        -0.14087
   H        1.28788         3.03630         0.51067
*
