16
 SCF done        -27.926251385491          0.000258286031
C          -1.53614965963622   -1.25758398593274    0.15883815091912
S          -2.70449380084291   -0.01544004471538    0.24167767321148
C          -1.51982156322346    1.20881633870212    0.15821575240158
C          -0.24748776721234    0.68953226472502    0.06793961753924
C          -0.26312271391340   -0.74998117401844    0.06860212224165
C           0.97571994776536   -1.45410791967228   -0.01972611261791
C           0.97446889554357   -2.86407881842040   -0.01971956872542
N           0.96873829036489   -4.01143003047884   -0.01826521588436
C           2.14786107782917   -0.74436807216497   -0.10297066531535
C           2.14741404747686    0.66659057248186   -0.10255447512940
C           0.98685156385502    1.37710869067051   -0.01973473585829
H          -1.83646698138418   -2.28609102490798    0.17982406794677
H          -1.81048846644014    2.23983499390708    0.17894513685697
H           3.08707756875606   -1.27362260795527   -0.16957949678948
H           3.09439171797726    1.18055571201759   -0.16984410672601
H           0.98819784308446    2.45662510576212   -0.01953814407058
