# ORCA input file
# SCF done        -23.465052308367          0.000526296382
! B3LYP/G D3BJ Opt RIJCOSX def2-SVP def2/J
* xyz 0 1
   C       -1.23784        -1.25615         0.04046
   S       -2.40701         0.03110        -0.02786
   C        0.01013        -0.74147         0.06448
   N        1.32090        -1.18587         0.18558
   C        2.16052        -0.00076         0.03782
   O        1.32087         1.14404         0.02269
   C        0.03681         0.68433         0.02111
   C       -1.17960         1.26182        -0.03303
   H       -1.56802        -2.27298         0.06108
   H        1.60131        -2.00377        -0.33345
   H        2.75689        -0.01773        -0.89027
   H        2.84503         0.08321         0.89472
   H       -1.45397         2.29400        -0.07840
*
