13
 SCF done        -23.465052308367          0.000526296382
C          -1.23784399321762   -1.25615421572279    0.04046100167548
S          -2.40700626233807    0.03110049808786   -0.02786113391732
C           0.01012946693732   -0.74147448434125    0.06448339881521
N           1.32089536949557   -1.18586831386314    0.18557819752377
C           2.16051836430012   -0.00076347208744    0.03782092317950
O           1.32087428685544    1.14404172828443    0.02269073665250
C           0.03680854180077    0.68433205279164    0.02110595058554
C          -1.17960005354901    1.26181803904114   -0.03302843359804
H          -1.56802450134342   -2.27298113332003    0.06107645310146
H           1.60130900713870   -2.00377052958076   -0.33345425110625
H           2.75688870103885   -0.01772687891687   -0.89026669565560
H           2.84503024086775    0.08320778249111    0.89471895387722
H          -1.45396916798640    2.29399892713608   -0.07839510113348
