17
 SCF done        -30.687566862530          0.000469598719
C           2.24482131818499    0.84889126410184    0.04859590219980
C           2.18166354591973   -0.44126149393179   -0.31039422296532
O           1.03240200269727   -1.17120853021926   -0.48442198281265
C          -0.17383449027048   -0.57952991696360   -0.27930436656687
C          -1.33373163010650   -1.27369672294875   -0.43128292130581
S          -2.71936608385841   -0.30091711072688   -0.11796052397516
C          -1.72626814046588    1.06284655564226    0.22475718897497
C          -0.40655739726036    0.77396444677911    0.10166634777872
S           0.89867409307111    1.92318351855715    0.37873299243678
C           3.39362229792323   -1.20635398459674   -0.55817679664186
C           3.40179215107056   -2.47835857970303   -0.94294880368044
H           3.19457900477853    1.34011345808612    0.16102919517298
H          -1.44194706982710   -2.30119779207643   -0.70998908087501
H          -2.16783132254454    1.99928232065356    0.49687525867746
H           4.31404000318692   -0.66126354566725   -0.40803877515875
H           2.48617500712932   -3.02286343611250   -1.09459473417373
H           4.32217671037161   -3.00714045087381   -1.11581467708510
