15
 SCF done        -26.912272366343          0.000972280310
C           0.88680823455031    1.45125521214763    0.17055731097174
S           2.32159492520345    0.51342560727871    0.12520471481629
C           1.45979010116403   -0.99523447001295   -0.07319387825488
C           0.11547354188168   -0.73344827706147   -0.09787249641153
C          -0.21676623560552    0.65771138199764    0.04190450357277
N          -1.55521617209000    0.92715441710366    0.02232546813315
C          -2.23315207188381   -0.13749712042288   -0.12027861331059
S          -1.34415849771244   -1.65684122280034   -0.25628626685867
C           2.18556755420851   -2.23077590186781   -0.17092576559117
C           1.62430772737340   -3.42635224956463   -0.33234818167942
H           0.93480463000561    2.51365814929827    0.28855156839830
H          -3.30493377583403   -0.15723539040252   -0.16318335780034
H           3.26085216506926   -2.13270814366701   -0.10048670372699
H           0.55742609224267   -3.54890508348554   -0.40891772640745
H           2.22051178142685   -4.31903690854080   -0.39596057585115
