# ORCA input file
# SCF done        -18.281654293496          0.000746455879
! B3LYP/G D3BJ Opt RIJCOSX def2-SVP def2/J
* xyz 0 1
   C        1.00402         1.26701         0.00605
   C       -0.41463         1.72494         0.00522
   N       -1.29651         0.78237         0.00225
   C       -0.54291        -0.37540         0.00105
   C       -0.46279        -1.72592         0.00001
   S        1.31818        -1.82966         0.00220
   C        0.87772        -0.05919         0.00370
   H        1.86099         1.91066         0.00808
   H       -0.70861         2.75914         0.00594
   H       -1.16146        -2.54043        -0.00153
*
