# ORCA input file
# SCF done        -25.434492127176          0.000344542233
! B3LYP/G D3BJ Opt RIJCOSX def2-SVP def2/J
* xyz 0 1
   C        1.44445         0.69882         0.03631
   C        0.17438         1.19197         0.03235
   C       -0.26721         2.61474         0.00813
   C       -0.70180         3.03383        -1.39825
   S       -0.98503        -0.09324        -0.00875
   C        0.27032        -1.30145        -0.01842
   C        1.50329        -0.70692         0.01021
   C       -0.09413        -2.69323        -0.05284
   C        0.76128        -3.71064        -0.10926
   H        2.31665         1.32884         0.06240
   H        0.56000         3.24630         0.33986
   H       -1.10353         2.75355         0.69752
   H        0.12179         2.91558        -2.09895
   H       -1.01632         4.07457        -1.40228
   H       -1.53233         2.41725        -1.73465
   H        2.42558        -1.25897         0.01494
   H       -1.15898        -2.88696        -0.03211
   H        1.82691        -3.56275        -0.13554
   H        0.41731        -4.72955        -0.13240
*
