# ORCA input file
# SCF done        -38.634882702589          0.000901378180
! B3LYP/G D3BJ Opt RIJCOSX def2-SVP def2/J
* xyz 0 1
   C        3.13639         0.01781        -1.39669
   C        2.70235         0.38704        -0.19324
   C        3.16570         1.54269         0.51858
   O        4.10840         2.36644        -0.00492
   C        4.34547         3.36633         0.88245
   C        3.54076         3.18235         1.99489
   C        2.78347         2.01268         1.76206
   O        1.86612         1.46142         2.59204
   O        3.43632         3.93133         3.13031
   C        5.29770         4.38983         0.59769
   C        6.02026         4.46474        -0.53716
   C        6.97311         5.50284        -0.80482
   C        7.68519         5.58162        -1.92910
   H        2.75573        -0.85902        -1.88879
   H        3.88519         0.58917        -1.91800
   H        1.95048        -0.17878         0.33766
   H        1.81791         2.01310         3.38306
   H        4.03375         4.68385         3.07246
   H        5.42393         5.14479         1.36558
   H        5.88358         3.70678        -1.29507
   H        7.09943         6.25172        -0.03166
   H        7.57717         4.85208        -2.71454
   H        8.39341         6.37291        -2.10200
*
