23
 SCF done        -38.634882702589          0.000901378180
C           3.13638585522247    0.01781286184674   -1.39669374188843
C           2.70235048410115    0.38704292741786   -0.19323890799091
C           3.16569710467578    1.54269430911847    0.51858102101868
O           4.10839738264900    2.36644079694496   -0.00491583237029
C           4.34546733076907    3.36633223731558    0.88245479671766
C           3.54076453393761    3.18235004952562    1.99489135900152
C           2.78347472570770    2.01268137074572    1.76205665000762
O           1.86612495740311    1.46141661591745    2.59203694558052
O           3.43631716596849    3.93132914633498    3.13030735636720
C           5.29770364369584    4.38982832413602    0.59769466822388
C           6.02026113276466    4.46473729801130   -0.53715952146025
C           6.97310572767843    5.50284309789398   -0.80482390221488
C           7.68519455646935    5.58162341125199   -1.92909777857018
H           2.75572523069748   -0.85901615369871   -1.88879315256013
H           3.88519136566955    0.58917452948158   -1.91799792762173
H           1.95048120736252   -0.17877915171433    0.33766230352567
H           1.81791164309152    2.01309580304640    3.38305719718948
H           4.03374733352396    4.68384669570007    3.07246401211984
H           5.42392791799126    5.14479112403102    1.36558177369569
H           5.88357906741658    3.70678233089944   -1.29506941753850
H           7.09943016216581    6.25171657514185   -0.03166193998530
H           7.57717141472187    4.85208246070638   -2.71453732122722
H           8.39341005631673    6.37291333994573   -2.10199864002036
