23
 SCF done        -38.951122860813          0.000739346554
C           1.47452142228436   -1.27392181784913   -0.12379792036343
S           2.72901878184561   -0.11464203679310   -0.05315928140185
C           1.57772312895538    1.18384403922547    0.06199402319061
C           0.28474834464781    0.70321963466984    0.03137016813207
C           0.23197365379379   -0.71418277457383   -0.07834554352229
C          -1.01466718653285   -1.54047581487854   -0.19919711744810
C          -2.20582806231953   -0.88076725086722    0.46036419614187
S          -2.41990881107704    0.69497194800936   -0.41578420693918
O          -2.39617967996676    0.44812622183410   -1.82971657197092
O          -3.54805400099856    1.40747319957250    0.11945095288169
C          -0.91482668995608    1.58386364520962    0.08576912921315
C           2.10942551327980    2.52158022125297    0.15717403554397
C           1.48338978331897    3.62332475098773    0.56198824803094
H           1.71734671526530   -2.31484385423918   -0.20539782481084
H          -0.83427586450249   -2.53611302433821    0.21378568195103
H          -1.25099304389765   -1.65207704272243   -1.26251993598131
H          -2.04379120624680   -0.63954142508482    1.50709164431316
H          -3.11788730769762   -1.45962809010226    0.34581889247536
H          -1.12805352029728    1.93656739949682    1.09452568200716
H          -0.81391784620884    2.43659678251002   -0.58393591407514
H           3.15420682307684    2.58863801341438   -0.12189871210879
H           0.46382744972007    3.63757645800450    0.89841720456070
H           2.00286160351354    4.56538081726136    0.58525317018010
