# ORCA input file
# SCF done        -49.365530666905          0.000256701067
! B3LYP/G D3BJ Opt RIJCOSX def2-SVP def2/J
* xyz 0 1
   C        3.11153        -0.42788        -0.08853
   S        1.90058        -1.65558         0.03974
   C        2.60579         0.83685        -0.10045
   C        1.19964         0.84857         0.00083
   C        0.08449         1.80341         0.05633
   C        0.13775         3.14690         0.14116
   C       -1.10646         3.98833         0.22036
   N       -1.80665         3.95933        -1.06158
   C        1.44131         3.89308         0.05438
   N        1.78543         4.07065        -1.35583
   C        0.68690        -0.44730         0.07584
   C       -0.72775        -0.38108         0.13260
   S       -2.05509        -1.45697         0.18368
   C       -1.11600         0.95994         0.09168
   C       -2.50764         1.10520         0.07100
   C       -3.16781        -0.10216         0.12115
   C       -4.57757        -0.37570         0.12269
   C       -5.54181         0.54056         0.05303
   H        4.13973        -0.72395        -0.15341
   H        3.24421         1.69674        -0.19143
   H       -0.82686         5.00878         0.52884
   H       -1.78217         3.58310         0.98137
   H       -1.15843         4.21032        -1.80119
   H       -2.55866         4.64109        -1.06202
   H        2.21193         3.36180         0.63409
   H        1.33238         4.89193         0.48798
   H        1.85624         3.16423        -1.80759
   H        2.68295         4.53621        -1.44263
   H       -3.02063         2.04130        -0.02520
   H       -4.83886        -1.42455         0.18577
   H       -5.32712         1.59261        -0.01527
   H       -6.58012         0.26004         0.05902
*
