32
 SCF done        -49.365530666905          0.000256701067
C           3.11152958418462   -0.42788025665423   -0.08853216234403
S           1.90058420309722   -1.65557807829304    0.03973688156905
C           2.60579350525778    0.83685106088248   -0.10044773856640
C           1.19963521744152    0.84856740185544    0.00083390265874
C           0.08448613823561    1.80341299590321    0.05633083329569
C           0.13775433873291    3.14689679282656    0.14116064266631
C          -1.10645744855516    3.98833205630080    0.22036353498801
N          -1.80664714987822    3.95933002359445   -1.06157951245143
C           1.44130849109773    3.89307903179841    0.05437518002281
N           1.78543114796313    4.07064701918435   -1.35582935531967
C           0.68689560264979   -0.44730188324470    0.07583537174216
C          -0.72775046343622   -0.38108320679180    0.13260231873781
S          -2.05508568870303   -1.45697318840313    0.18367579469257
C          -1.11599989772162    0.95994112412606    0.09168496213229
C          -2.50764036034601    1.10520064626817    0.07099646849226
C          -3.16781154493588   -0.10216455443169    0.12115479918730
C          -4.57757145469688   -0.37569765675081    0.12268863719377
C          -5.54181210716821    0.54055591539117    0.05302914450834
H           4.13972525377842   -0.72394801156033   -0.15340773235282
H           3.24420977753124    1.69673754044612   -0.19142822602948
H          -0.82685830584107    5.00877641975144    0.52883873693530
H          -1.78217308939363    3.58309914823822    0.98136690637861
H          -1.15843110908324    4.21032036911140   -1.80119257818464
H          -2.55866485115633    4.64109224230147   -1.06201737401298
H           2.21193135123634    3.36179729147055    0.63408542330947
H           1.33238275698945    4.89192750316027    0.48798215264437
H           1.85624255681697    3.16422939780178   -1.80758601813702
H           2.68295393666062    4.53620637905215   -1.44262519788166
H          -3.02063251084052    2.04130403222350   -0.02519736910427
H          -4.83886246418110   -1.42455130235243    0.18576766004267
H          -5.32712083880014    1.59260848552111   -0.01527365022404
H          -6.58012457693690    0.26003526127278    0.05901756341067
