10
 SCF done        -18.689387182330          0.000414534526
C           0.34742741329546    1.04703920727856   -0.03561564782545
C          -0.99785717413310    0.33548546016514   -0.03247339670674
O          -2.12895302694272    0.71031760674081   -0.03153796878643
C           1.00153356250696   -0.32709440083968   -0.03961093805790
O           2.13260464488264   -0.70192407963677   -0.04677025507044
C          -0.34374289513688   -1.03864628210026   -0.03306661133073
H           0.55211616697166    1.65523315797400    0.84505214729490
H           0.54702387136574    1.65879580628240   -0.91492329088988
H          -0.54213794446192   -1.64680778159189    0.84906112101891
H          -0.54961461834784   -1.65043869427231   -0.91090515964623
