# ORCA input file
# SCF done        -25.437671319301          0.000719648596
! B3LYP/G D3BJ Opt RIJCOSX def2-SVP def2/J
* xyz 0 1
   C       -0.68981        -1.37808        -0.13798
   C       -1.24505        -0.14896        -0.03178
   C       -2.68377         0.22701        -0.01710
   S       -0.01515         1.07489         0.09806
   C        1.24560        -0.10896         0.00616
   C        2.66985         0.32389         0.06609
   C        0.73725        -1.37723        -0.11829
   C        1.57461        -2.55601        -0.21571
   C        1.14207        -3.80556        -0.34120
   H       -1.27850        -2.27291        -0.22828
   H       -3.30061        -0.66573        -0.08964
   H       -2.91884         0.88532        -0.85351
   H       -2.93505         0.75447         0.90293
   H        2.72827         1.40406         0.17397
   H        3.19956         0.03828        -0.84334
   H        3.17845        -0.13629         0.91384
   H        2.63938        -2.36657        -0.18023
   H        0.09542        -4.05535        -0.38131
   H        1.82903        -4.63166        -0.40829
*
