22
 SCF done        -29.052086475168          0.000569067327
C           1.37829567253419   -0.27346206414799    0.10616461012347
C           0.92205938258283    1.02772834709406    0.20617913711609
C          -0.43869549317355    1.30221421352825    0.20245029686921
C          -0.95420509713405    2.71243247462345    0.31452464179310
N          -2.00332051401418    2.94692985642995   -0.67084664762967
C          -1.33392571604687    0.24731914848914    0.08540983554876
C          -0.87745950055128   -1.05304939110326   -0.02378559494895
C           0.48303144120627   -1.32850910639307   -0.00912877102778
C           0.99848115294419   -2.73864400804979   -0.12275288606568
N           2.09712481113662   -2.79968892441637   -1.07969377681584
H           2.43619881570738   -0.48611774078961    0.10390059803592
H           1.63237804880150    1.83859810655967    0.29225185379167
H          -0.10887369322235    3.41713604038403    0.23007752303887
H          -1.40532468393759    2.85334506454493    1.30436200544971
H          -1.63562876011044    2.80705783052572   -1.60650158184623
H          -2.33941549595546    3.90157229573822   -0.60688727520536
H          -2.39133185473367    0.46171752389254    0.06798642002787
H          -1.58756153506653   -1.86318253825019   -0.11815907075129
H           0.16162732968232   -3.41333020658166   -0.37328967985821
H           1.39960094738883   -3.05470912080768    0.84795680236573
H           1.77644584820901   -2.49595959484716   -1.99351895998865
H           2.43503889375272   -3.75178820642305   -1.16784948002288
