# ORCA input file
# SCF done        -36.285700863442          0.000707888622
! B3LYP/G D3BJ Opt RIJCOSX def2-SVP def2/J
* xyz 0 1
   C       -1.40564         0.18552        -0.17335
   S       -0.68223        -0.38734         1.29578
   C       -0.64084        -0.03592        -1.27726
   C        0.56395        -0.68343        -0.94604
   C        1.75217        -1.17651        -1.62158
   S        2.08837        -1.11318        -3.21996
   C        0.67708        -0.93791         0.42292
   C        1.92467        -1.59281         0.65913
   S        2.82420        -2.22924         1.96063
   C        2.58117        -1.74169        -0.56582
   C        3.82198        -2.37710        -0.44136
   C        4.11030        -2.71009         0.86303
   C        5.29248        -3.36752         1.34178
   C        5.53893        -3.67328         2.61356
   H       -2.36683         0.65614        -0.11807
   H       -0.92435         0.24908        -2.27369
   H        4.48227        -2.58606        -1.26351
   H        6.01178        -3.61188         0.57141
   H        4.83713        -3.43775         3.39662
   H        6.44669        -4.16792         2.90896
*
