20
 SCF done        -36.285700863442          0.000707888622
C          -1.40563568385976    0.18551544012498   -0.17334730907278
S          -0.68223228921911   -0.38734247673392    1.29578414508866
C          -0.64083749080383   -0.03591684320730   -1.27725589085598
C           0.56395307594288   -0.68342750324190   -0.94603749172685
C           1.75217382089173   -1.17651097691282   -1.62158484819073
S           2.08836989342029   -1.11318156155293   -3.21995925495259
C           0.67708246681321   -0.93791321831411    0.42291967705754
C           1.92467124338565   -1.59281134772430    0.65912804046266
S           2.82419670523402   -2.22924185728834    1.96063476742366
C           2.58117266652706   -1.74168996521515   -0.56582062293890
C           3.82197581834760   -2.37710493088977   -0.44135565424113
C           4.11029956030128   -2.71009411292141    0.86303151452694
C           5.29247884329891   -3.36751913766601    1.34177514843598
C           5.53892854954607   -3.67327911023810    2.61356375766390
H          -2.36683431614678    0.65613605660166   -0.11806948082528
H          -0.92434679316662    0.24908168148346   -2.27368669018837
H           4.48226771656124   -2.58605988946829   -1.26351409204800
H           6.01177825895739   -3.61188262831522    0.57141298192627
H           4.83712586829982   -3.43775403730148    3.39662348059532
H           6.44669208566901   -4.16792358121909    2.90895782185968
