23
 SCF done        -47.641538860444          0.000609535375
C           1.53590855605095   -1.29488690308328   -0.09288342759920
S           2.75795682738096   -0.09926782765596   -0.12897931460353
C           1.59007215007647    1.18418575864458   -0.03106811373273
C           0.31421960646638    0.67164251191639    0.00226328372520
C           0.29013485926895   -0.74852722665426   -0.02037598585895
C          -0.98418689664329   -1.53260031107192   -0.08164750087757
F          -1.20297721903441   -1.90266075746006   -1.40105618042564
C          -2.17273398357091   -0.68255054828792    0.38055469206717
F          -3.33462280631125   -1.36721146340154    0.14342756279655
C          -2.15131731271963    0.64147304356182   -0.38711610839515
F          -3.29775153881354    1.35610447318859   -0.16142013271799
C          -0.94867822550678    1.46843073720062    0.08364540020509
F          -1.17326150147405    1.83127593798102    1.40594170265125
C           2.06678308596265    2.54828764170406   -0.01505658595381
C           1.44685039000120    3.58584302020729    0.53779522925313
H           1.79656328665804   -2.33343764245154   -0.13438322688713
H          -0.92946416803777   -2.47105276583532    0.48247367107607
H          -2.12743832979244   -0.49768035392335    1.46115004770131
H          -2.10071292639078    0.45455456203298   -1.46709188958585
H          -0.88374223387571    2.40962469980252   -0.47607353282734
H           3.03698523957194    2.68357664854819   -0.47665355379994
H           0.51824585199607    3.49610903085189    1.07163067827549
H           1.88198728873691    4.56939773418515    0.49919328551357
