# ORCA input file
# SCF done        -47.641538860444          0.000609535375
! B3LYP/G D3BJ Opt RIJCOSX def2-SVP def2/J
* xyz 0 1
   C        1.53591        -1.29489        -0.09288
   S        2.75796        -0.09927        -0.12898
   C        1.59007         1.18419        -0.03107
   C        0.31422         0.67164         0.00226
   C        0.29013        -0.74853        -0.02038
   C       -0.98419        -1.53260        -0.08165
   F       -1.20298        -1.90266        -1.40106
   C       -2.17273        -0.68255         0.38055
   F       -3.33462        -1.36721         0.14343
   C       -2.15132         0.64147        -0.38712
   F       -3.29775         1.35610        -0.16142
   C       -0.94868         1.46843         0.08365
   F       -1.17326         1.83128         1.40594
   C        2.06678         2.54829        -0.01506
   C        1.44685         3.58584         0.53780
   H        1.79656        -2.33344        -0.13438
   H       -0.92946        -2.47105         0.48247
   H       -2.12744        -0.49768         1.46115
   H       -2.10071         0.45455        -1.46709
   H       -0.88374         2.40962        -0.47607
   H        3.03699         2.68358        -0.47665
   H        0.51825         3.49611         1.07163
   H        1.88199         4.56940         0.49919
*
