# ORCA input file
# SCF done        -28.665021823988          0.000626289244
! B3LYP/G D3BJ Opt RIJCOSX def2-SVP def2/J
* xyz 0 1
   C       -1.21855         1.29597        -0.00118
   C        0.00961         0.72944        -0.00049
   C       -0.00491        -0.71405        -0.00062
   C       -1.31150        -1.30523        -0.00147
   O       -1.68958        -2.43756        -0.00180
   S       -2.49284         0.13113        -0.00209
   C        1.29064        -1.14515         0.00015
   N        2.11750        -0.06831         0.00070
   C        1.40718         1.15236         0.00040
   O        1.93328         2.23577         0.00080
   H       -1.46262         2.34170        -0.00121
   H        1.67257        -2.14970         0.00029
   H        3.12524        -0.10956         0.00127
*
