13
 SCF done        -28.665021823988          0.000626289244
C          -1.21855445341265    1.29596561829442   -0.00117803217112
C           0.00960503100301    0.72944383032637   -0.00049369916237
C          -0.00490926183558   -0.71404695639315   -0.00061609257236
C          -1.31150116351575   -1.30522833251008   -0.00146546629314
O          -1.68957931372645   -2.43756378903717   -0.00180153975815
S          -2.49284168255739    0.13113293490218   -0.00209499955029
C           1.29064010065303   -1.14515486096074    0.00015301524551
N           2.11749899315866   -0.06831346397379    0.00070123173054
C           1.40718420883780    1.15235689540930    0.00039952330224
O           1.93328204816408    2.23576727669760    0.00080238145432
H          -1.46261594092341    2.34169634235227   -0.00121082394716
H           1.67256832466659   -2.14970407775293    0.00028818809942
H           3.12524310948806   -0.10956141735428    0.00126631362254
