25
 SCF done        -41.214987441817          0.000432319014
C           1.38628649633587   -1.34356914232109    0.25268105621783
S           2.63959676941036   -0.17983786662085    0.17689895527723
C           1.49347905410982    1.10480186411721   -0.08885078148101
C           0.20850711508497    0.61547968859691   -0.09616722143635
C           0.15287832816900   -0.78837484745868    0.09925883350713
C          -1.13146443136251   -1.55676263096680    0.17066683533442
C          -2.29567726264031   -0.74421400859132   -0.39277376464412
C          -2.27682001367713    0.67873674289161    0.17093920606402
N          -2.36816043187946    0.58605577118973    1.65410404656378
O          -1.47652901245546    1.04719403320896    2.31918511898943
O          -3.35740656434443    0.04567446514644    2.09001112228461
C          -1.03110116954169    1.44121443691673   -0.25882155630486
C           2.01922094575654    2.43795622215771   -0.23813008544098
C           1.40737069682908    3.49894500923810   -0.75704472183525
H           1.62732914473410   -2.37568531576454    0.41249865219277
H          -1.33337973248511   -1.81399084632098    1.21596041257918
H          -1.03454204279180   -2.49736089726479   -0.37503211171286
H          -3.24115262429331   -1.22645034548397   -0.13969673189335
H          -2.21869530433308   -0.68181856312632   -1.47945252164346
H          -3.18181021495250    1.20966696158035   -0.14485475192187
H          -0.93336460905007    2.35833033039031    0.32764580548391
H          -1.15309078357698    1.72208520614730   -1.30927200676334
H           3.04160674239037    2.54236018359850    0.10332518694457
H           0.41222524646766    3.47016263505567   -1.15983491438603
H           1.91233365809608    4.44773091368381   -0.81161406197546
