# ORCA input file
# SCF done        -41.214987441817          0.000432319014
! B3LYP/G D3BJ Opt RIJCOSX def2-SVP def2/J
* xyz 0 1
   C        1.38629        -1.34357         0.25268
   S        2.63960        -0.17984         0.17690
   C        1.49348         1.10480        -0.08885
   C        0.20851         0.61548        -0.09617
   C        0.15288        -0.78837         0.09926
   C       -1.13146        -1.55676         0.17067
   C       -2.29568        -0.74421        -0.39277
   C       -2.27682         0.67874         0.17094
   N       -2.36816         0.58606         1.65410
   O       -1.47653         1.04719         2.31919
   O       -3.35741         0.04567         2.09001
   C       -1.03110         1.44121        -0.25882
   C        2.01922         2.43796        -0.23813
   C        1.40737         3.49895        -0.75704
   H        1.62733        -2.37569         0.41250
   H       -1.33338        -1.81399         1.21596
   H       -1.03454        -2.49736        -0.37503
   H       -3.24115        -1.22645        -0.13970
   H       -2.21870        -0.68182        -1.47945
   H       -3.18181         1.20967        -0.14485
   H       -0.93336         2.35833         0.32765
   H       -1.15309         1.72209        -1.30927
   H        3.04161         2.54236         0.10333
   H        0.41223         3.47016        -1.15983
   H        1.91233         4.44773        -0.81161
*
