# ORCA input file
# SCF done        -20.010691630831          0.000046155232
! B3LYP/G D3BJ Opt RIJCOSX def2-SVP def2/J
* xyz 0 1
   C        0.12402         1.21744         0.02231
   S       -1.05767        -0.03640        -0.08922
   C        0.15743        -1.23297        -0.08314
   C        1.41712        -0.69663         0.00073
   C        1.38246         0.72740         0.06130
   C        2.64036        -1.48683         0.02493
   O        3.75689        -1.03947         0.09823
   H       -0.19890         2.23890         0.05142
   H       -0.11174        -2.26947        -0.14132
   H        2.27351         1.32371         0.13009
   H        2.46102        -2.57952        -0.03153
*
