11
 SCF done        -20.010691630831          0.000046155232
C           0.12401959939302    1.21743537139354    0.02231383347814
S          -1.05766691474647   -0.03640200691747   -0.08921561480065
C           0.15743049824376   -1.23297106457702   -0.08314171700173
C           1.41711542455207   -0.69663272168049    0.00073288696528
C           1.38245971122782    0.72739973382475    0.06129914575673
C           2.64036004045575   -1.48683275297574    0.02493035950445
O           3.75689438330977   -1.03947229966780    0.09823118212532
H          -0.19890486794367    2.23889740369713    0.05141907673202
H          -0.11173605961936   -2.26946507290859   -0.14132318727366
H           2.27351449297397    1.32371138801287    0.13009186957357
H           2.46102369215333   -2.57951797820120   -0.03152783505948
