19
 SCF done        -26.708894116448          0.000720048051
C           1.19713728786524    0.17421506073777   -0.04745486378618
C           0.53591141414610   -0.99834806807260    0.05138198163980
C          -0.86628249628948   -0.72033314156474    0.06485045030849
C          -1.06128998447172    0.63313446168417   -0.02770851618622
C           0.24475220979584    1.33542565324174   -0.10815041865213
N          -2.38061901573403    0.99506864136164   -0.02081824521919
C          -3.07428368603845   -0.10424825037372    0.07698557986992
C          -2.20669174226380   -1.35587230409220    0.14343786234621
C          -4.50714825344619   -0.08524689174884    0.11810781536658
C          -5.28397497377530   -1.16181721326105    0.23906628534884
H           2.26374354438687    0.30393707982343   -0.08077443009924
H           0.97686411802152   -1.97755625106971    0.11116336004784
H           0.39682213906160    2.02850503916510    0.72068879431426
H           0.35661906255309    1.90475657225178   -1.03208046785334
H          -2.41495044797250   -2.02520041145388   -0.69201690177520
H          -2.37058708115514   -1.90422400415858    1.07142833654283
H          -4.94188642251787    0.90227492272122    0.04635523990991
H          -4.87913051875764   -2.15703010105694    0.31647969962259
H          -6.35641515340814   -1.07978079413458    0.26694843825426
