# ORCA input file
# SCF done        -26.708894116448          0.000720048051
! B3LYP/G D3BJ Opt RIJCOSX def2-SVP def2/J
* xyz 0 1
   C        1.19714         0.17422        -0.04745
   C        0.53591        -0.99835         0.05138
   C       -0.86628        -0.72033         0.06485
   C       -1.06129         0.63313        -0.02771
   C        0.24475         1.33543        -0.10815
   N       -2.38062         0.99507        -0.02082
   C       -3.07428        -0.10425         0.07699
   C       -2.20669        -1.35587         0.14344
   C       -4.50715        -0.08525         0.11811
   C       -5.28397        -1.16182         0.23907
   H        2.26374         0.30394        -0.08077
   H        0.97686        -1.97756         0.11116
   H        0.39682         2.02851         0.72069
   H        0.35662         1.90476        -1.03208
   H       -2.41495        -2.02520        -0.69202
   H       -2.37059        -1.90422         1.07143
   H       -4.94189         0.90227         0.04636
   H       -4.87913        -2.15703         0.31648
   H       -6.35642        -1.07978         0.26695
*
