32
 SCF done        -42.280311497118          0.000458862707
N          -2.65167836311796    0.79196269662993    0.53906627913721
C          -3.43281492352156   -0.27976460512954   -0.03121594356872
N          -2.48140854242606   -1.37082600677124   -0.22137033710886
C          -1.22867758294917   -0.75309470804138   -0.64374467834491
C          -0.04564383769306   -1.43244798853068    0.04685058253125
C           1.25264127962040   -0.67945241082476   -0.21979388771944
C           1.09122621491264    0.86307215285824   -0.11407009569882
C          -0.20314578826196    1.23781492470269    0.61041327639821
C          -1.39150425622300    0.73262154906489   -0.19604360314148
N           2.27023331540966    1.27238632629897    0.62627144998386
C           3.15725683726558    0.12697212724003    0.77871603865979
N           2.30315109853428   -1.03296199337881    0.73062071815721
C           2.75938564925881    2.55070690134520    0.52898347123188
C           3.99179611516877    2.94850025011591    0.83004997235720
H          -2.47413976561216    0.58542991191177    1.51836504714212
H          -3.86503046455265    0.08127630622216   -0.98163762408220
H          -4.24225147079098   -0.58839176275199    0.63271581589435
H          -2.81271232055573   -2.07840173070933   -0.86369367884416
H          -1.08012960664241   -0.79752441788170   -1.73385772985479
H           0.04584618399885   -2.46154351651001   -0.30122513928697
H          -0.24905225947798   -1.46989603370638    1.11844101991048
H           1.62644877528982   -0.92931410360850   -1.22062585441273
H           1.07345252684654    1.31519825446828   -1.11687814943691
H          -0.27120123462420    2.31976515616896    0.72942670017010
H          -0.20219704395230    0.79578788742828    1.60848767699307
H          -1.51145590910132    1.35960547191865   -1.08897078914311
H           3.70680356204047    0.18213445871576    1.72077844699277
H           3.88037016329252    0.07579110512825   -0.05329044855394
H           1.88615831439814   -1.18545446735139    1.64459253075125
H           2.01415131798855    3.26978495982392    0.21472735187873
H           4.76061879400031    2.27006467526792    1.15113229052290
H           4.25544322147706    3.98821862988613    0.77624929048462
