31
 SCF done        -51.728434723588          0.000509312559
C          -2.73762767199331   -1.33074791223729    0.03147197785759
S          -3.95634519247431   -0.13389871375303    0.03052543052172
C          -2.77190933164895    1.14693441813420    0.03447358774368
C          -1.48951704053704    0.62765823709994    0.03384719243037
C          -1.47961378136307   -0.79882152100319    0.03309404800542
C          -0.25173870225445   -1.60144606466875    0.03549575629492
O          -0.25933344291007   -2.81855349416584    0.04937633466435
C           0.99427433584350   -0.80777680566305    0.01651101297315
C           2.21217480193380   -1.48361375158351   -0.00075560815974
C           3.40682451537386   -0.79237468517720   -0.02840036234181
C           3.41961150750237    0.59958114106787   -0.04081408956087
C           4.71392101353937    1.35650531695114   -0.03009765674269
C           5.16731045192904    1.60766160418037    1.41038488799952
C           2.20707778097350    1.27383297956488   -0.01537252903739
C           0.99359375266236    0.59455584052195    0.01132461481639
C          -0.24946822920121    1.40577984098874    0.03160982739093
O          -0.21144673351037    2.62427207631235    0.04468302568004
C          -3.16103048363807    2.52840222396184    0.03741593014864
C          -4.42250381268402    2.95335631081230    0.03739796842351
H          -2.99460038149997   -2.37195619291904    0.02999976563635
H           2.19235814230127   -2.56356845419385    0.00584887299876
H           4.34127344145152   -1.33469720665306   -0.04530862428611
H           4.58681065843729    2.31369736934432   -0.53845336266824
H           5.48196934982958    0.78555097921996   -0.55541208826787
H           4.41887664377588    2.18651671533577    1.94649612226475
H           6.10532280488312    2.15722286146477    1.42060895943597
H           5.31084365298757    0.66468629701419    1.93311651839304
H           2.18042460440647    2.35440139811310   -0.02075569319132
H          -2.33453687195929    3.22605309781069    0.04050092514804
H          -5.25333844896321    2.26533534188214    0.03420430695843
H          -4.66092733319287    4.00203075223738    0.03968294847044
