# ORCA input file
# SCF done        -51.728434723588          0.000509312559
! B3LYP/G D3BJ Opt RIJCOSX def2-SVP def2/J
* xyz 0 1
   C       -2.73763        -1.33075         0.03147
   S       -3.95635        -0.13390         0.03053
   C       -2.77191         1.14693         0.03447
   C       -1.48952         0.62766         0.03385
   C       -1.47961        -0.79882         0.03309
   C       -0.25174        -1.60145         0.03550
   O       -0.25933        -2.81855         0.04938
   C        0.99427        -0.80778         0.01651
   C        2.21217        -1.48361        -0.00076
   C        3.40682        -0.79237        -0.02840
   C        3.41961         0.59958        -0.04081
   C        4.71392         1.35651        -0.03010
   C        5.16731         1.60766         1.41038
   C        2.20708         1.27383        -0.01537
   C        0.99359         0.59456         0.01132
   C       -0.24947         1.40578         0.03161
   O       -0.21145         2.62427         0.04468
   C       -3.16103         2.52840         0.03742
   C       -4.42250         2.95336         0.03740
   H       -2.99460        -2.37196         0.03000
   H        2.19236        -2.56357         0.00585
   H        4.34127        -1.33470        -0.04531
   H        4.58681         2.31370        -0.53845
   H        5.48197         0.78555        -0.55541
   H        4.41888         2.18652         1.94650
   H        6.10532         2.15722         1.42061
   H        5.31084         0.66469         1.93312
   H        2.18042         2.35440        -0.02076
   H       -2.33454         3.22605         0.04050
   H       -5.25334         2.26534         0.03420
   H       -4.66093         4.00203         0.03968
*
