# ORCA input file
# SCF done        -43.631339674105          0.000296592102
! B3LYP/G D3BJ Opt RIJCOSX def2-SVP def2/J
* xyz 0 1
   C       -2.49809        -1.33110         0.14424
   C       -3.47843        -0.40864         0.14068
   S       -2.89671         1.22249         0.12999
   C       -1.24725         0.65479         0.12950
   C       -1.18574        -0.75964         0.13901
   C        0.04872        -1.41137         0.14646
   C        0.13844        -2.91030         0.15800
   C        0.15127        -3.46715        -1.26714
   C        1.19592        -0.61710         0.10560
   C        1.08790         0.79455         0.09652
   C       -0.12400         1.46700         0.12201
   C       -0.21365         2.96209         0.09826
   C       -0.26787         3.48336        -1.33839
   S        2.65716         1.55503         0.05203
   C        3.42946         0.00499         0.04345
   C        2.56674        -1.02787         0.07363
   H       -2.68976        -2.38894         0.14391
   H       -4.53887        -0.57099         0.13958
   H       -0.71101        -3.32549         0.70229
   H        1.04636        -3.22068         0.67719
   H       -0.75496        -3.17829        -1.79486
   H        0.21302        -4.55307        -1.24951
   H        1.00499        -3.07865        -1.81802
   H        0.65907         3.38292         0.60285
   H       -1.11325         3.27751         0.63177
   H        0.62405         3.18232        -1.88326
   H       -0.32737         4.56887        -1.34199
   H       -1.14064         3.08577        -1.85147
   H        4.50126        -0.02959         0.01243
   H        2.88323        -2.05531         0.06677
*
