30
 SCF done        -43.631339674105          0.000296592102
C          -2.49808882422416   -1.33110008968114    0.14424080061849
C          -3.47842563377188   -0.40863575766878    0.14068189062942
S          -2.89670698639617    1.22248814827973    0.12999025164990
C          -1.24725274435374    0.65478742704362    0.12949973337069
C          -1.18573960608735   -0.75964428864744    0.13900810797158
C           0.04871641952618   -1.41136703867230    0.14645771535677
C           0.13844146503425   -2.91029501630102    0.15799852465651
C           0.15127221306800   -3.46715193861594   -1.26713820846322
C           1.19591568209843   -0.61709974115172    0.10560356327990
C           1.08789954107885    0.79455128802426    0.09651609455274
C          -0.12399544598984    1.46700069625245    0.12200582721216
C          -0.21365073144158    2.96208966068479    0.09825930813642
C          -0.26786982201406    3.48336469036678   -1.33838985771760
S           2.65716306857426    1.55503351833482    0.05202818039415
C           3.42946424555337    0.00498902881927    0.04345131311131
C           2.56673732289991   -1.02787321158742    0.07363228932527
H          -2.68976492119561   -2.38894205565793    0.14390725036218
H          -4.53886911697150   -0.57098651057693    0.13958039809502
H          -0.71101269915443   -3.32548889286938    0.70228888574010
H           1.04636380537244   -3.22067800579971    0.67719007385451
H          -0.75496241340369   -3.17829281856106   -1.79486451752872
H           0.21302014854813   -4.55307280211391   -1.24951044723046
H           1.00498826306251   -3.07864591123743   -1.81802048189077
H           0.65906524495872    3.38292423181544    0.60284814916346
H          -1.11324741673124    3.27750794079916    0.63176619960982
H           0.62404736988666    3.18231709327613   -1.88325700651777
H          -0.32737332580518    4.56886516429098   -1.34199324892242
H          -1.14064359507150    3.08576587575915   -1.85146842064882
H           4.50125609060588   -0.02959180561973    0.01243438272449
H           2.88323240234442   -2.05530887898484    0.06677324910441
