# ORCA input file
# SCF done        -38.103502860157          0.000777622059
! B3LYP/G D3BJ Opt RIJCOSX def2-SVP def2/J
* xyz 0 1
   C        1.81896        -0.94969         0.00994
   S        2.54562         0.61190        -0.02738
   C        1.03281         1.41346        -0.04682
   C        0.00139         0.51174        -0.02587
   C        0.46373        -0.84510         0.00663
   S       -0.84979        -1.98662         0.03266
   C       -2.01854        -0.66853         0.00191
   C       -3.43201        -1.06339         0.01253
   O       -3.73299        -2.23553         0.03818
   C       -4.43982         0.06186        -0.01343
   C       -5.86824        -0.46235        -0.00039
   C       -1.42018         0.55734        -0.02750
   F       -2.08629         1.72002        -0.05520
   H        2.43016        -1.82736         0.03114
   H        0.98335         2.48277        -0.07239
   H       -4.25965         0.66564        -0.90652
   H       -4.25860         0.70594         0.85077
   H       -6.04384        -1.09579        -0.86606
   H       -6.57442         0.36361        -0.01724
   H       -6.04149        -1.05785         0.89226
*
