# ORCA input file
# SCF done        -30.636473411344          0.000183594962
! B3LYP/G D3BJ Opt RIJCOSX def2-SVP def2/J
* xyz 0 1
   C       -1.59376        -1.22462         0.04668
   S       -2.80236        -0.01663         0.05071
   C       -1.65059         1.24153         0.09560
   C       -0.36348         0.75540         0.10730
   C       -0.32819        -0.68403         0.07893
   C        0.91522        -1.35198         0.08616
   C        2.07682        -0.62624         0.11999
   O        3.23777        -1.34669         0.12343
   C        4.46829        -0.66845         0.16286
   C        2.03816         0.79633         0.14814
   C        0.85657         1.47015         0.14223
   H       -1.87338        -2.25821         0.02112
   H       -1.97434         2.26280         0.11078
   H        0.95672        -2.42893         0.06479
   H        5.23000        -1.44708         0.16127
   H        4.57248        -0.06795         1.07272
   H        4.60876        -0.02902        -0.71505
   H        2.96097         1.35410         0.17456
   H        0.83595         2.54957         0.16421
*
