19
 SCF done        -30.636473411344          0.000183594962
C          -1.59376293812502   -1.22461615810132    0.04667761840868
S          -2.80235761654551   -0.01662700860182    0.05071206530467
C          -1.65059103275013    1.24152815838128    0.09559956170397
C          -0.36347731594482    0.75540141839736    0.10730267391104
C          -0.32819453242469   -0.68403358386129    0.07892937119888
C           0.91522078501401   -1.35197817700365    0.08615976092763
C           2.07681683751372   -0.62623720220306    0.11999180446959
O           3.23777227882932   -1.34669153860091    0.12343425075263
C           4.46829376143502   -0.66845464943768    0.16285857109470
C           2.03816128523447    0.79632526312236    0.14813972236053
C           0.85657180973873    1.47014624901258    0.14223200585251
H          -1.87337587435208   -2.25820652383020    0.02111820104808
H          -1.97434116657126    2.26280226433734    0.11078412794574
H           0.95671933098487   -2.42892630316964    0.06478863857832
H           5.23000241548411   -1.44707709079481    0.16126863241846
H           4.57248309836351   -0.06795292942490    1.07271533667041
H           4.60876317823876   -0.02901916368477   -0.71504715537652
H           2.96096515062311    1.35409896435752    0.17456066506245
H           0.83595054525374    2.54956801110565    0.16421414766818
