# ORCA input file
# SCF done        -35.574308257622          0.000478882271
! B3LYP/G D3BJ Opt RIJCOSX def2-SVP def2/J
* xyz 0 1
   C       -1.44203         1.34461        -0.05259
   C       -0.18451         0.79170        -0.02679
   N        0.99324         1.45686         0.05859
   C        2.07763         0.73507         0.06665
   C        3.37846         1.46259         0.15530
   C        2.04409        -0.70405        -0.00691
   C        3.30738        -1.49941         0.01205
   N        0.92447        -1.36791        -0.09043
   C       -0.21706        -0.64494        -0.10488
   C       -1.50509        -1.15756        -0.19077
   S       -2.64967         0.14178        -0.17186
   C       -1.86748        -2.53871        -0.28570
   C       -3.11304        -3.00172        -0.37055
   H       -1.71072         2.38023        -0.00942
   H        3.18580         2.52995         0.21650
   H        3.98939         1.25718        -0.72273
   H        3.93508         1.14477         1.03564
   H        3.94840        -1.21900        -0.82219
   H        3.06507        -2.55573        -0.05950
   H        3.85676        -1.31915         0.93471
   H       -1.01800        -3.20887        -0.28519
   H       -3.96129        -2.33657        -0.37306
   H       -3.32041        -4.05432        -0.44119
*
