23
 SCF done        -35.574308257622          0.000478882271
C          -1.44202668352523    1.34460999287609   -0.05259099281929
C          -0.18450738103019    0.79169574928436   -0.02679093200306
N           0.99323614353776    1.45686358363411    0.05858905003813
C           2.07763232238242    0.73507184741325    0.06664554754643
C           3.37845809419031    1.46259192907533    0.15530428955572
C           2.04408675772229   -0.70405039726218   -0.00691358520497
C           3.30737773133520   -1.49940882786155    0.01204806742195
N           0.92446831993915   -1.36790615592368   -0.09043304663370
C          -0.21706067988631   -0.64493810977565   -0.10488160204052
C          -1.50508759926462   -1.15756463053597   -0.19077281338811
S          -2.64966789699228    0.14177835866129   -0.17186011360477
C          -1.86748498824451   -2.53871072353777   -0.28570380142866
C          -3.11303937557107   -3.00172033716267   -0.37055267019876
H          -1.71071544525348    2.38022513361275   -0.00942013925636
H           3.18579776590082    2.52995476586628    0.21650409511565
H           3.98938655878731    1.25717518423162   -0.72272831184465
H           3.93507577023963    1.14476633174068    1.03563711240546
H           3.94840381918465   -1.21900138010128   -0.82218988816238
H           3.06507286692136   -2.55573134803545   -0.05950489241361
H           3.85676035235375   -1.31914978622436    0.93471363078409
H          -1.01799588636870   -3.20887008470446   -0.28519209549504
H          -3.96128868578635   -2.33657344164573   -0.37306389249724
H          -3.32041188057201   -4.05431765362499   -0.44119301587639
