# ORCA input file
# SCF done        -46.696637539151          0.000897050406
! B3LYP/G D3BJ Opt RIJCOSX def2-SVP def2/J
* xyz 0 1
   C       -0.14729         0.29205         0.45660
   S       -1.66498        -0.31203         0.98129
   C       -1.69157         0.80621         2.29006
   C       -0.58379         1.58233         2.31488
   C        0.31842         1.30509         1.24568
   C        1.59367         1.98807         1.11626
   C        2.29839         2.23025         0.00483
   C        3.69083         2.81280         0.09873
   C        4.69722         1.74978        -0.20834
   S        5.86911         1.96445        -1.46967
   C        6.54982         0.39500        -1.17418
   C        7.67704        -0.10971        -2.00821
   C        7.18331        -0.59471        -3.37325
   C        5.88721        -0.23507        -0.16935
   C        4.83450         0.53236         0.37957
   C        1.86620         1.97172        -1.36890
   C        0.68098         2.29138        -1.86724
   H        0.32434        -0.14463        -0.40013
   H       -2.52627         0.81032         2.96234
   H       -0.40330         2.34263         3.05424
   H        2.01095         2.30972         2.06419
   H        3.86332         3.20402         1.10545
   H        3.80382         3.63362        -0.61318
   H        8.16342        -0.93324        -1.48058
   H        8.41194         0.68552        -2.15495
   H        6.45871        -1.39608        -3.24996
   H        8.01522        -0.96554        -3.96616
   H        6.70792         0.22098        -3.91300
   H        6.14455        -1.22093         0.17638
   H        4.20150         0.19234         1.18020
   H        2.63429         1.56786        -2.01902
   H       -0.09041         2.72835        -1.25593
   H        0.43799         2.12457        -2.90267
*
