33
 SCF done        -46.696637539151          0.000897050406
C          -0.14728695912298    0.29205434485857    0.45659567129356
S          -1.66497896583342   -0.31202840107950    0.98129028429261
C          -1.69157469783857    0.80621132557386    2.29006387842010
C          -0.58379451293401    1.58232931826914    2.31487540898281
C           0.31842126215753    1.30508957612396    1.24567615157627
C           1.59367417363319    1.98807235851566    1.11625545323463
C           2.29839223497209    2.23025479064965    0.00482540700795
C           3.69082986495116    2.81280344053348    0.09872659854957
C           4.69721528353944    1.74978391712099   -0.20833832201830
S           5.86911431810199    1.96445472350663   -1.46967337812198
C           6.54981664947703    0.39500451908754   -1.17418402700478
C           7.67703908309251   -0.10970620640843   -2.00820787788912
C           7.18330790471208   -0.59470960890825   -3.37325425817650
C           5.88721098467760   -0.23506661561515   -0.16934737432483
C           4.83449872100177    0.53236235398064    0.37956572089722
C           1.86620063022962    1.97171794702438   -1.36890325916244
C           0.68098407467971    2.29137812306526   -1.86723760579444
H           0.32434387676725   -0.14463138018779   -0.40013021234066
H          -2.52627433406756    0.81031742531416    2.96234414084323
H          -0.40330313291114    2.34262571879414    3.05424331980527
H           2.01095425317940    2.30971778410165    2.06419259764151
H           3.86331940775482    3.20402450726147    1.10545310237090
H           3.80382492711006    3.63361891630413   -0.61318345046376
H           8.16342268338977   -0.93323897318429   -1.48057591343702
H           8.41194203207291    0.68552043261806   -2.15495120632925
H           6.45870894972471   -1.39608462109735   -3.24996154114136
H           8.01521829916706   -0.96553919689890   -3.96615711003458
H           6.70791809367651    0.22097608313567   -3.91300344664021
H           6.14454833667495   -1.22092649669788    0.17637713418957
H           4.20150135494507    0.19233606219957    1.18020402162335
H           2.63428571038632    1.56786393456229   -2.01901518787349
H          -0.09041082284075    2.72835172887306   -1.25592879243647
H           0.43799031547428    2.12457216860331   -2.90266592753604
