14
 SCF done        -23.996600478557          0.000545711760
C          -1.09593516849040    0.00445458100245    0.17359528820898
O          -0.22110199599022    1.02566097403409    0.13494844683459
C           1.01100804045486    0.50961764382262   -0.06567211394438
C           0.92810908225977   -0.86054569254750   -0.15612845182573
C          -0.43961580654260   -1.18383600971987   -0.00070761215864
O          -1.01512412552711   -2.41278570022876   -0.01686154488788
C           2.12119528191108    1.42333489648883   -0.14697604470990
C           3.38582518500173    1.07439979657400   -0.36324905727845
H          -2.13089847151550    0.22955966819280    0.32467045366535
H           1.73588814908969   -1.54701472378152   -0.31137122936382
H          -0.33069903363082   -3.07688598441476   -0.15480257714796
H           1.84915840197982    2.46220901201980   -0.01800536122458
H           3.67843910930334    0.04782990244961   -0.49759371754220
H           4.16907135169635    1.80940163610823   -0.41251647862537
