17
 SCF done        -30.374846156404          0.000681848149
C          -1.22330966771814   -1.35956749833363    0.12874738931564
S          -2.45551083894534   -0.14879310461178    0.06557548275141
C          -1.31354584511416    1.17481771553985   -0.08651829781083
C          -0.04621264872684    0.65030948465851   -0.08396107816999
C          -0.00215152158489   -0.77309458339921    0.03751621210676
N           1.32568298049298   -1.13031764627467    0.02568612894383
C           2.10148508810743   -0.00796718792580   -0.09505064425653
S           3.73581826931627    0.03998699773190   -0.14992257559298
N           1.26015645341828    1.07046649018051   -0.16161829829808
C          -1.80123256827873    2.52134696178481   -0.18294693746915
C          -1.05249810935963    3.61380120288731   -0.31295115333214
H          -1.48866269520781   -2.39112069662985    0.22630943635307
H           1.71080525287721   -2.05622588388226    0.09517943120914
H           1.59827617061893    2.01246083705513   -0.25326424161205
H          -2.87830855162578    2.61050300197606   -0.14180687468482
H           0.02192657830181    3.57886729694966   -0.36015789101403
H          -1.50051834657163    4.58892661229353   -0.37751608843934
