# ORCA input file
# SCF done        -30.374846156404          0.000681848149
! B3LYP/G D3BJ Opt RIJCOSX def2-SVP def2/J
* xyz 0 1
   C       -1.22331        -1.35957         0.12875
   S       -2.45551        -0.14879         0.06558
   C       -1.31355         1.17482        -0.08652
   C       -0.04621         0.65031        -0.08396
   C       -0.00215        -0.77309         0.03752
   N        1.32568        -1.13032         0.02569
   C        2.10149        -0.00797        -0.09505
   S        3.73582         0.03999        -0.14992
   N        1.26016         1.07047        -0.16162
   C       -1.80123         2.52135        -0.18295
   C       -1.05250         3.61380        -0.31295
   H       -1.48866        -2.39112         0.22631
   H        1.71081        -2.05623         0.09518
   H        1.59828         2.01246        -0.25326
   H       -2.87831         2.61050        -0.14181
   H        0.02193         3.57887        -0.36016
   H       -1.50052         4.58893        -0.37752
*
