# ORCA input file
# SCF done        -34.586245273670          0.000863258937
! B3LYP/G D3BJ Opt RIJCOSX def2-SVP def2/J
* xyz 0 1
   C       -1.24507         1.34119        -0.13998
   S       -2.47617         0.14095        -0.10124
   C       -1.33361        -1.17394         0.07290
   C       -0.06007        -0.65454         0.09431
   C       -0.02119         0.76196        -0.02636
   C        1.38801         1.17485         0.01099
   O        1.88999         2.25310        -0.05737
   O        2.12457         0.01541         0.14995
   C        1.32691        -1.11190         0.20727
   O        1.79007        -2.20610         0.32616
   C       -1.82780        -2.51983         0.16171
   C       -1.05394        -3.59663         0.29233
   H       -1.49668         2.37767        -0.24284
   H       -2.90501        -2.61219         0.11289
   H        0.01877        -3.52438         0.34277
   H       -1.48408        -4.58105         0.35275
*
