16
 SCF done        -34.586245273670          0.000863258937
C          -1.24507113833041    1.34119242682120   -0.13998138298103
S          -2.47617277446727    0.14094844068562   -0.10123506128343
C          -1.33360920042775   -1.17393745977634    0.07290152158507
C          -0.06006707187318   -0.65454425853694    0.09430949788064
C          -0.02118902631612    0.76196089723619   -0.02636183075697
C           1.38801195260765    1.17485221371085    0.01099161804016
O           1.88999243606166    2.25309928634762   -0.05737281377580
O           2.12457153176809    0.01541451877449    0.14995359633890
C           1.32691086440640   -1.11189560779541    0.20726615197475
O           1.79006946645181   -2.20609932017172    0.32616115832381
C          -1.82779699669048   -2.51982790948380    0.16171273887539
C          -1.05393827423496   -3.59662705285622    0.29232538810738
H          -1.49667810419790    2.37767007250605   -0.24284230228560
H          -2.90500678172847   -2.61219472870933    0.11288522923504
H           0.01877070319943   -3.52437892021442    0.34277208116883
H          -1.48407758622850   -4.58105259853781    0.35275440955293
