# ORCA input file
# SCF done        -38.303173290367          0.000644718475
! B3LYP/G D3BJ Opt RIJCOSX def2-SVP def2/J
* xyz 0 1
   C       -2.91515         1.45092        -0.00358
   C       -3.39699         0.15142         0.00314
   C       -2.55191        -0.95799         0.04955
   C       -1.17670        -0.69976         0.06820
   C       -0.67622         0.61512         0.04162
   C       -1.55714         1.69157         0.01394
   C        0.76378         0.65794         0.03167
   C        1.32784        -0.62661         0.04175
   S        0.11504        -1.88339         0.07704
   C        2.69927        -0.82072         0.03281
   C        3.51898         0.29068         0.01004
   C        2.97715         1.57273        -0.00281
   C        1.61066         1.76258         0.00779
   C       -3.16210        -2.28155         0.05755
   C       -2.60535        -3.42815         0.42533
   H       -3.61000         2.27697        -0.03026
   H       -4.46434        -0.01555        -0.01932
   H       -1.17372         2.70009        -0.00200
   H        3.10871        -1.81901         0.04244
   H        4.59101         0.16288         0.00196
   H        3.63639         2.42777        -0.02132
   H        1.19609         2.75933        -0.00186
   H       -4.19966        -2.28255        -0.25501
   H       -1.59292        -3.50363         0.77942
   H       -3.16512        -4.34781         0.39820
*
