25
 SCF done        -38.303173290367          0.000644718475
C          -2.91514515924806    1.45091912646051   -0.00358400980304
C          -3.39699230530264    0.15142227420382    0.00314318872222
C          -2.55191360321417   -0.95799041766025    0.04954540857127
C          -1.17670491679706   -0.69976242636070    0.06820288869468
C          -0.67621963619856    0.61511768029158    0.04162023996883
C          -1.55713724239123    1.69156916386574    0.01393976199729
C           0.76378025239748    0.65794485323309    0.03166933412093
C           1.32783556590848   -0.62661355179454    0.04175441264030
S           0.11504099072297   -1.88339433958524    0.07704122503930
C           2.69926712680612   -0.82071923507747    0.03280820639598
C           3.51897626571283    0.29068156872638    0.01004414068377
C           2.97715435796536    1.57272683704094   -0.00280863617436
C           1.61066282241785    1.76257504204269    0.00778924144054
C          -3.16209636446089   -2.28154767306520    0.05754838536792
C          -2.60535179236383   -3.42815137529859    0.42533075812959
H          -3.60999893210893    2.27696691988311   -0.03025622136035
H          -4.46433887727997   -0.01555023961141   -0.01931841427890
H          -1.17371956353485    2.70009201266675   -0.00200055745731
H           3.10871259055223   -1.81900785565355    0.04244210474134
H           4.59100543235913    0.16287909700710    0.00196358956589
H           3.63639110706626    2.42776858704024   -0.02131915103969
H           1.19608521524933    2.75932697022306   -0.00185512004692
H          -4.19965504796353   -2.28255140346645   -0.25500865589034
H          -1.59291669756099   -3.50363161721357    0.77941512980576
H          -3.16512158873354   -4.34780999789768    0.39820275016534
