# ORCA input file
# SCF done        -41.954187846273          0.000508338103
! B3LYP/G D3BJ Opt RIJCOSX def2-SVP def2/J
* xyz 0 1
   C        1.30047         0.24615        -0.22137
   C        0.53916         1.39991        -0.38437
   O        1.08218         2.61349        -0.68444
   C        2.48618         2.76630        -0.67953
   C        2.78433         4.24711        -0.86431
   C       -0.85794         1.32462        -0.22204
   C       -1.42519         0.09432         0.11954
   C       -0.66087        -1.04944         0.28671
   C        0.71644        -0.96054         0.10482
   O       -1.14485        -2.28018         0.62213
   C       -2.52842        -2.42543         0.86474
   C       -2.77733        -3.87071         1.26785
   C       -1.77116         2.45088        -0.37208
   C       -1.52720         3.64386        -0.90200
   H        2.37039         0.27681        -0.35245
   H        2.93681         2.18627        -1.49762
   H        2.90360         2.41404         0.27398
   H        2.38558         4.59200        -1.81443
   H        3.85760         4.41415        -0.84706
   H        2.32039         4.81913        -0.06516
   H       -2.49639         0.05699         0.24617
   H        1.31681        -1.84762         0.22752
   H       -3.10039        -2.18123        -0.04224
   H       -2.84433        -1.74837         1.67135
   H       -2.46779        -4.53709         0.46777
   H       -3.83339        -4.02207         1.47198
   H       -2.20251        -4.10991         2.15846
   H       -2.77348         2.24319        -0.01333
   H       -0.56620         3.91612        -1.29472
   H       -2.30464         4.38811        -0.96095
*
