# ORCA input file
# SCF done        -34.181279343008          0.000488182588
! B3LYP/G D3BJ Opt RIJCOSX def2-SVP def2/J
* xyz 0 1
   C        1.66995        -1.26771        -0.00754
   C        2.02231         0.05432        -0.01821
   C        3.40610         0.60534        -0.03131
   F        4.32537        -0.36770        -0.04378
   F        3.64563         1.37679        -1.10566
   F        3.66844         1.37033         1.04251
   S        0.66387         1.11364        -0.01404
   C       -0.40236        -0.25292         0.00218
   C       -1.79231        -0.08344         0.01177
   N       -2.93223         0.03965         0.01921
   C        0.27918        -1.44558         0.00410
   H        2.38481        -2.07045        -0.00828
   H       -0.20964        -2.40266         0.01355
*
