13
 SCF done        -34.181279343008          0.000488182588
C           1.66995063059854   -1.26771497381835   -0.00754019553722
C           2.02231191553552    0.05432066330261   -0.01821042463367
C           3.40610285388712    0.60534307680025   -0.03131381269064
F           4.32537084764729   -0.36769770374113   -0.04378250117547
F           3.64563020208554    1.37678660049620   -1.10565539385074
F           3.66844332737876    1.37032920249780    1.04251307350396
S           0.66387308516855    1.11363808621198   -0.01403547719033
C          -0.40236444382508   -0.25292094987437    0.00217914468392
C          -1.79231147690744   -0.08344453182428    0.01176526391898
N          -2.93222894436759    0.03964993255370    0.01920860421735
C           0.27917880265666   -1.44557544540062    0.00410295361011
H           2.38480945276449   -2.07044956896678   -0.00828211637117
H          -0.20963625262237   -2.40266438823703    0.01355088151492
