# ORCA input file
# SCF done        -23.756113665809          0.000374258906
! B3LYP/G D3BJ Opt RIJCOSX def2-SVP def2/J
* xyz 0 1
   C        1.77546        -1.57429         0.19876
   N        1.50889        -0.30009         0.69129
   C        0.35370         0.11824         0.45185
   C       -0.32971         1.36517         0.81955
   C       -1.49550         1.52542        -0.16581
   N       -2.10925         0.22921        -0.22985
   S       -0.73245        -1.05459        -0.48232
   C        0.73243        -2.22282        -0.31448
   H        2.79298        -1.91165         0.31931
   H        0.35458         2.21270         0.80304
   H       -0.73205         1.25707         1.83132
   H       -1.10429         1.86940        -1.14170
   H       -2.20127         2.27960         0.19727
   H       -2.77597         0.16461        -0.98868
   H       -1.36373        -1.72061         0.49478
   H        0.76318        -3.18305        -0.79103
*
