25
 SCF done        -39.791428235675          0.000870441633
C           1.46667304967407   -1.52145820563807   -0.03653762583932
S           2.74447455795340   -0.42606189796881   -0.35192232070823
C           1.65399808411307    0.93211760689652   -0.31679509088100
C           0.36512233224303    0.51306485400032   -0.08712058678302
C           0.26510850175980   -0.89198188372391    0.07995832114588
C          -1.04508622262856   -1.60733451489575    0.28407994698408
C          -1.37104634041981   -2.27590710201546   -0.95933042174561
N          -1.62023134429518   -2.77933455002589   -1.95467203127632
C          -2.16630733271065   -0.62732262640211    0.65720541139850
C          -2.13204362805583    0.58264808443697   -0.27110348129849
C          -0.85157287298355    1.39710511831087   -0.02925145928561
C          -0.91620504445616    2.00276250726655    1.28479514601098
N          -0.97475767853227    2.44714288400678    2.33643542577172
C           2.20951594100186    2.24292866995277   -0.55465735671692
C           1.69881275447442    3.41109224394124   -0.17757092802353
H           1.66996394014284   -2.57139417851071    0.03960600253812
H          -0.93755531737189   -2.37772214834138    1.05740959478494
H          -2.03031619943802   -0.30120584349779    1.69132081510225
H          -3.13148086482078   -1.13258060475449    0.58229868169575
H          -3.00347874715880    1.21576032927679   -0.09345741634474
H          -2.15521089854798    0.25075179419633   -1.31183997904997
H          -0.76335547926323    2.19993080470268   -0.77173666466845
H           3.15680192106363    2.22622317025308   -1.08043543064392
H           0.79937276601322    3.50356052735947    0.40364391188976
H           2.20504412224388    4.33050496117291   -0.41452246405649
