21
 SCF done        -34.510800122787          0.000951274543
C           1.61327661831285    1.05458315388243   -0.11230471021674
S           2.80923164818666   -0.17724338894678   -0.05932688534414
C           1.59842549257506   -1.39087548286211    0.03639235300758
C           0.34331194766546   -0.86837050868636    0.03228021900862
C           0.35176862412937    0.55025946303000   -0.06322140235257
C          -0.91253647946765    1.36673693171611   -0.04393321615681
C          -1.05833712808820    1.91692354758706    1.28859821382314
N          -1.16492922686927    2.32538319715940    2.35059047386592
C          -2.13160440446596    0.49756923842500   -0.38731908973475
C          -2.12505059264356   -0.77961372492449    0.44807104793601
C          -0.93258326741458   -1.66642171726602    0.05737506961721
C          -1.13696785728019   -2.20767159283004   -1.27081571494938
N          -1.29158943858396   -2.60630495844516   -2.33065049413495
H           1.91280340275269    2.08201584693502   -0.17317113341056
H           1.88379031776789   -2.42294716203666    0.08725469355611
H          -0.83220445413764    2.20773042722291   -0.74292624859419
H          -2.10243111594222    0.24309309434463   -1.44980200939623
H          -3.04581140437465    1.06299877559505   -0.19650360729323
H          -3.05438374501802   -1.33179066282297    0.29393396622259
H          -2.04964926154189   -0.52495815664785    1.50851903157310
H          -0.83939967556230   -2.51076632042877    0.75041944297345
