# ORCA input file
# SCF done        -34.510800122787          0.000951274543
! B3LYP/G D3BJ Opt RIJCOSX def2-SVP def2/J
* xyz 0 1
   C        1.61328         1.05458        -0.11230
   S        2.80923        -0.17724        -0.05933
   C        1.59843        -1.39088         0.03639
   C        0.34331        -0.86837         0.03228
   C        0.35177         0.55026        -0.06322
   C       -0.91254         1.36674        -0.04393
   C       -1.05834         1.91692         1.28860
   N       -1.16493         2.32538         2.35059
   C       -2.13160         0.49757        -0.38732
   C       -2.12505        -0.77961         0.44807
   C       -0.93258        -1.66642         0.05738
   C       -1.13697        -2.20767        -1.27082
   N       -1.29159        -2.60630        -2.33065
   H        1.91280         2.08202        -0.17317
   H        1.88379        -2.42295         0.08725
   H       -0.83220         2.20773        -0.74293
   H       -2.10243         0.24309        -1.44980
   H       -3.04581         1.06300        -0.19650
   H       -3.05438        -1.33179         0.29393
   H       -2.04965        -0.52496         1.50852
   H       -0.83940        -2.51077         0.75042
*
