20
 SCF done        -37.920709660966          0.000725390795
C          -0.93323409932799   -0.05034449691709    0.80997000025524
O          -1.03260763292196   -1.39962826515643    0.92225110055979
C          -0.02878189477365   -1.89825729104260    0.20871976942110
C           0.73341458283972   -0.88334083587240   -0.37423837573140
C           0.12630108477008    0.32543255148070    0.02979333716730
C           1.82600328623296   -1.45907792360758   -1.14811777307582
S           2.97222820862961   -0.68421499092173   -2.00470723104258
C           1.65206005122070   -2.90173001427267   -0.97625299824881
C           0.54185126365752   -3.15510679507324   -0.16608647801528
O           0.35665241431413   -4.45774691188661    0.00774795224584
C           1.35291379763124   -5.08604266762518   -0.69004388802185
C           2.17471803856212   -4.15876561129665   -1.31371489217699
C           1.37646579707151   -6.52223493786983   -0.66136951607683
C           2.28596184544441   -7.28401978241208   -1.26471134813101
H          -1.67022645967793    0.52998472949344    1.32777320587216
H           0.42143405164694    1.32467107418908   -0.21415147045928
H           3.02736273997940   -4.37274627272410   -1.92347410126939
H           0.57169294260439   -6.96786613779700   -0.09252381428858
H           3.09448131818494   -6.86249974694683   -1.83580142385157
H           2.24295866391183   -8.35659567374120   -1.20600205513202
