# ORCA input file
# SCF done        -37.920709660966          0.000725390795
! B3LYP/G D3BJ Opt RIJCOSX def2-SVP def2/J
* xyz 0 1
   C       -0.93323        -0.05034         0.80997
   O       -1.03261        -1.39963         0.92225
   C       -0.02878        -1.89826         0.20872
   C        0.73341        -0.88334        -0.37424
   C        0.12630         0.32543         0.02979
   C        1.82600        -1.45908        -1.14812
   S        2.97223        -0.68421        -2.00471
   C        1.65206        -2.90173        -0.97625
   C        0.54185        -3.15511        -0.16609
   O        0.35665        -4.45775         0.00775
   C        1.35291        -5.08604        -0.69004
   C        2.17472        -4.15877        -1.31371
   C        1.37647        -6.52223        -0.66137
   C        2.28596        -7.28402        -1.26471
   H       -1.67023         0.52998         1.32777
   H        0.42143         1.32467        -0.21415
   H        3.02736        -4.37275        -1.92347
   H        0.57169        -6.96787        -0.09252
   H        3.09448        -6.86250        -1.83580
   H        2.24296        -8.35660        -1.20600
*
