# ORCA input file
# SCF done        -22.853134229207          0.000373665600
! B3LYP/G D3BJ Opt RIJCOSX def2-SVP def2/J
* xyz 0 1
   C       -1.25417        -0.13559         0.00259
   S       -0.46967         1.38742        -0.00053
   C        1.07236         0.64098        -0.00309
   C        0.99096        -0.72328        -0.00154
   C       -0.36963        -1.17744         0.00165
   C       -0.74458        -2.53496         0.00401
   N       -1.05366        -3.63786         0.00555
   C        2.10622        -1.58332        -0.00295
   N        3.01599        -2.27919        -0.00496
   H       -2.32488        -0.19518         0.00504
   H        1.96417         1.23649        -0.00551
*
