11
 SCF done        -22.853134229207          0.000373665600
C          -1.25416798119008   -0.13559466908029    0.00259380040603
S          -0.46967243945029    1.38741682036784   -0.00052712003010
C           1.07235777008337    0.64098282158757   -0.00308984820000
C           0.99096283500547   -0.72328450665685   -0.00154295236718
C          -0.36962679012926   -1.17744235262947    0.00164808376708
C          -0.74458467151606   -2.53496229007791    0.00401391750965
N          -1.05365542261661   -3.63785699586125    0.00554572998993
C           2.10621588127765   -1.58332308908704   -0.00294602627676
N           3.01599267063952   -2.27919227133876   -0.00496101250794
H          -2.32487606763629   -0.19518190549159    0.00504040621869
H           1.96417421553258    1.23648843826774   -0.00551497850941
