# ORCA input file
# SCF done        -46.844203375854          0.000378070398
! B3LYP/G D3BJ Opt RIJCOSX def2-SVP def2/J
* xyz 0 1
   C       -0.00997         1.44454        -0.00975
   C        1.15813         0.69803        -0.00676
   C        2.58088         1.14024        -0.00734
   O        3.03464         2.23741        -0.01059
   O        3.35263         0.00232        -0.00341
   C        2.58399        -1.13781        -0.00010
   O        3.04086        -2.23368         0.00351
   C        1.16008        -0.69953        -0.00226
   C       -0.00593        -1.44933        -0.00035
   C       -1.17403        -0.70279        -0.00325
   C       -1.17598         0.69476        -0.00783
   C       -2.59996         1.13298        -0.00981
   O       -3.05678         2.22889        -0.01361
   O       -3.36853        -0.00708        -0.00626
   C       -2.59669        -1.14506        -0.00224
   O       -3.05051        -2.24220         0.00135
   H       -0.01148         2.52262        -0.01325
   H       -0.00442        -2.52740         0.00316
*
