20
 SCF done        -25.639137548680          0.000775971368
C          -0.70114281106030   -1.21679976030860   -0.15210059066744
C          -1.12732789587106    0.07486991520497   -0.03897314321650
C          -2.49701679827511    0.65528463695448   -0.00466659466873
N          -0.01580581321971    0.86858585023612    0.04814878592742
C           1.11184306332177    0.10790714047975   -0.00751482780643
C           2.46966961347126    0.71422828197230    0.06870407777911
C           0.72167612655748   -1.21319585070161   -0.13381971228653
C           1.61469516175702   -2.34465759615606   -0.22443074865562
C           1.24302862010294   -3.61540558500807   -0.33876072664070
H          -1.33018592697799   -2.07950228394123   -0.23943890053027
H          -3.23415632392665   -0.14054286881535   -0.05717036809665
H          -2.65574899694298    1.33065493177373   -0.84676565941479
H          -2.65864655800732    1.21817419046410    0.91568965459983
H          -0.03148042505042    1.87120970457407    0.13991842633517
H           2.39762669835574    1.79857274401247    0.12861920288737
H           3.05882041986036    0.45598225480830   -0.81100966670045
H           3.00577726000273    0.35573273418793    0.94765822832319
H           2.66918940700196   -2.09921361949182   -0.19083108614582
H           0.20784038843429   -3.90558907424559   -0.37613895468976
H           1.96427479046601   -4.41229574599992   -0.40059739633241
