# ORCA input file
# SCF done        -25.639137548680          0.000775971368
! B3LYP/G D3BJ Opt RIJCOSX def2-SVP def2/J
* xyz 0 1
   C       -0.70114        -1.21680        -0.15210
   C       -1.12733         0.07487        -0.03897
   C       -2.49702         0.65528        -0.00467
   N       -0.01581         0.86859         0.04815
   C        1.11184         0.10791        -0.00751
   C        2.46967         0.71423         0.06870
   C        0.72168        -1.21320        -0.13382
   C        1.61470        -2.34466        -0.22443
   C        1.24303        -3.61541        -0.33876
   H       -1.33019        -2.07950        -0.23944
   H       -3.23416        -0.14054        -0.05717
   H       -2.65575         1.33065        -0.84677
   H       -2.65865         1.21817         0.91569
   H       -0.03148         1.87121         0.13992
   H        2.39763         1.79857         0.12862
   H        3.05882         0.45598        -0.81101
   H        3.00578         0.35573         0.94766
   H        2.66919        -2.09921        -0.19083
   H        0.20784        -3.90559        -0.37614
   H        1.96427        -4.41230        -0.40060
*
