# ORCA input file
# SCF done        -45.199583986821          0.000445318983
! B3LYP/G D3BJ Opt RIJCOSX def2-SVP def2/J
* xyz 0 1
   C        1.62972         1.10680        -1.11539
   C        2.06453        -0.11561        -0.34498
   C        2.69760         0.46233         0.96175
   C        2.43554         1.95575         1.22268
   C        1.70624         2.30785         2.27863
   O        3.03918         3.00155         0.54506
   C        3.02504         3.15825        -0.89256
   C        3.00543         1.74029        -1.41732
   C        3.40689         1.09827        -2.70564
   C        3.37602        -0.22671        -2.59210
   C        3.03257        -0.92375        -1.28096
   C        2.44655        -2.30538        -1.57846
   C        4.26554         3.95524        -1.28459
   C        4.25367         5.36218        -0.69262
   C        5.49684         6.15060        -1.08383
   H        0.98469         1.74870        -0.51525
   H        1.10059         0.86472        -2.03808
   H        1.22274        -0.75771        -0.07574
   H        3.77674         0.28811         0.98933
   H        2.27997        -0.06659         1.81890
   H        1.29225         1.58283         2.95411
   H        1.53610         3.34500         2.50672
   H        2.12129         3.72430        -1.16674
   H        3.74431         1.29776        -0.74342
   H        3.65160         1.63181        -3.60852
   H        3.60809        -0.87757        -3.42176
   H        3.98081        -1.07907        -0.74726
   H        1.50838        -2.20788        -2.12100
   H        2.25829        -2.84869        -0.65502
   H        3.13437        -2.89151        -2.18417
   H        5.15195         3.42073        -0.93719
   H        4.30419         4.01002        -2.37472
   H        4.19037         5.28152         0.39312
   H        3.36280         5.89022        -1.04088
   H        6.39431         5.65389        -0.72194
   H        5.46362         7.15097        -0.65888
   H        5.56808         6.23969        -2.16614
*
