37
 SCF done        -45.199583986821          0.000445318983
C           1.62971681009014    1.10680422415369   -1.11538768341489
C           2.06453434699647   -0.11560931199913   -0.34498272157874
C           2.69759955110932    0.46233287137801    0.96175199558996
C           2.43554078782411    1.95574515957771    1.22267885330955
C           1.70624078083860    2.30785499538026    2.27863395413975
O           3.03918425063681    3.00154662292970    0.54505684360535
C           3.02503898500575    3.15825372116038   -0.89255505102854
C           3.00542546778240    1.74028901343260   -1.41731946815498
C           3.40688988140529    1.09827495725498   -2.70563686725753
C           3.37601764547639   -0.22670932668136   -2.59210425932449
C           3.03256634947095   -0.92375471088741   -1.28095854668263
C           2.44655339978854   -2.30537667113705   -1.57846055563209
C           4.26554188678080    3.95524426955332   -1.28459456746220
C           4.25366905606848    5.36218267052079   -0.69261587396164
C           5.49684223998981    6.15060362051420   -1.08382719206257
H           0.98468943786640    1.74869676869950   -0.51524749060576
H           1.10059371194278    0.86471846155996   -2.03807774516912
H           1.22274167438371   -0.75771090253365   -0.07574499775493
H           3.77674185027457    0.28810761275975    0.98933230257957
H           2.27997142099469   -0.06658637821515    1.81889763072275
H           1.29224600744291    1.58282693078967    2.95410642914094
H           1.53609995029773    3.34500473461230    2.50671561417781
H           2.12129191362291    3.72430078106800   -1.16674066822263
H           3.74431171473212    1.29776299270582   -0.74341835021907
H           3.65160191647301    1.63181372746072   -3.60851807955085
H           3.60809215126384   -0.87756708613831   -3.42175994037421
H           3.98081290207303   -1.07906699765040   -0.74725791913022
H           1.50838366169981   -2.20787688864884   -2.12100444821568
H           2.25829316873437   -2.84868909856169   -0.65502213658041
H           3.13437397533933   -2.89150628183132   -2.18417049033205
H           5.15195136562993    3.42072981438872   -0.93718548325927
H           4.30418528059577    4.01002446185353   -2.37471837420345
H           4.19036528497277    5.28151755295013    0.39312142129708
H           3.36279693828326    5.89022209701109   -1.04087994120874
H           6.39431037465925    5.65389456084435   -0.72193737990431
H           5.46361891771735    7.15097402837693   -0.65887766302243
H           5.56808494173699    6.23968700334837   -2.16614115024941
