# ORCA input file
# SCF done        -27.377654244352          0.000867835628
! B3LYP/G D3BJ Opt RIJCOSX def2-SVP def2/J
* xyz 0 1
   N        1.11840        -0.27345         0.21666
   C        2.47546        -0.17817         0.10610
   S        3.31257         1.32985         0.08273
   C        4.86627         0.58012         0.05124
   C        4.75429        -0.78168         0.06143
   C        3.37779        -1.23233         0.08805
   N        3.05404        -2.54239         0.07520
   C        4.06079        -3.37013         0.05421
   C        5.41612        -2.93456         0.04466
   N        5.77093        -1.68490         0.04376
   H        0.56639         0.51406        -0.07998
   H        0.74643        -1.18780         0.01035
   H        5.75003         1.18185         0.03257
   H        3.82095        -4.42438         0.04152
   H        6.21828        -3.66113         0.03350
*
