15
 SCF done        -27.377654244352          0.000867835628
N           1.11840456973117   -0.27344913116850    0.21666138081496
C           2.47546478437399   -0.17816928134659    0.10609695303226
S           3.31256692185646    1.32984990733524    0.08273371784215
C           4.86627411007773    0.58012103115909    0.05124105638425
C           4.75428629360734   -0.78168112383384    0.06143036673799
C           3.37779165198742   -1.23232523255618    0.08804527469216
N           3.05404086867784   -2.54238752288975    0.07520033423343
C           4.06079245235937   -3.37013127996521    0.05420898275798
C           5.41612035939158   -2.93455945176244    0.04466060595864
N           5.77093089629112   -1.68489667182123    0.04376257742377
H           0.56639105388886    0.51405897266379   -0.07997779384567
H           0.74642553802772   -1.18780476057984    0.01035141557334
H           5.75003420280340    1.18185043224639    0.03257195414296
H           3.82094571674417   -4.42438139121217    0.04152334151595
H           6.21828058018182   -3.66113449626875    0.03349983273583
