17
 SCF done        -28.748040815600          0.000521195167
C          -1.20409263752134    1.43153700570850   -0.05816558503450
C           0.00036025144837    0.82776179617207    0.04845628552438
C          -0.06853396490448   -0.59047037137639   -0.01376321619832
O           1.17707224315896   -1.14087843132507    0.07126749336605
C           2.09105345961655   -0.05898074012815    0.16153993033907
N           1.32710126602402    1.17979101508197    0.26942865153749
C          -1.32016024423491   -1.10448277669552   -0.16483870484830
S          -2.45696174938257    0.23793966279460   -0.22839545842859
C          -1.72005530755999   -2.47942915000176   -0.26861621227650
C          -2.97238308087720   -2.89597738918522   -0.42626153997773
H          -1.45886761754097    2.47030097270979   -0.04653934018784
H           2.75060468801106   -0.07470869147626   -0.72318010098906
H           2.70722458594336   -0.20028265435023    1.06197956048652
H           1.69849613178007    1.98181215025775   -0.21582636618126
H          -0.89834243564862   -3.18116315488470   -0.20645775240048
H          -3.78896638240885   -2.19598423674245   -0.48773188378234
H          -3.21610920590344   -3.94069500655892   -0.49903576094859
