# ORCA input file
# SCF done        -28.748040815600          0.000521195167
! B3LYP/G D3BJ Opt RIJCOSX def2-SVP def2/J
* xyz 0 1
   C       -1.20409         1.43154        -0.05817
   C        0.00036         0.82776         0.04846
   C       -0.06853        -0.59047        -0.01376
   O        1.17707        -1.14088         0.07127
   C        2.09105        -0.05898         0.16154
   N        1.32710         1.17979         0.26943
   C       -1.32016        -1.10448        -0.16484
   S       -2.45696         0.23794        -0.22840
   C       -1.72006        -2.47943        -0.26862
   C       -2.97238        -2.89598        -0.42626
   H       -1.45887         2.47030        -0.04654
   H        2.75060        -0.07471        -0.72318
   H        2.70722        -0.20028         1.06198
   H        1.69850         1.98181        -0.21583
   H       -0.89834        -3.18116        -0.20646
   H       -3.78897        -2.19598        -0.48773
   H       -3.21611        -3.94070        -0.49904
*
