15
 SCF done        -29.638351479960          0.000571089507
C           1.48421396061455    1.07438104133690    0.00163596982601
N           2.15732700268355   -0.11291235777246   -0.00271650506178
C           1.28201106706149   -1.15579859011617   -0.00459275561009
C           0.01493908241291   -0.62730972767971   -0.00029473381683
C           0.15326797156884    0.78587210005911    0.00349607163790
S          -1.48211331457210    1.49002282374881    0.01015586378551
O          -1.75777183952100    2.18946164592218   -1.21503513655020
O          -1.75068349701730    2.18028644110137    1.24217083831836
C          -2.26013262658009   -0.14038282371174    0.00648765604558
C          -1.34811975832753   -1.10697794746386    0.00134309066430
H           1.99716902520322    2.01421780255475    0.00325261706354
H           3.16071681290734   -0.20420085169379   -0.00471373263379
H           1.62044208213943   -2.17242749969838   -0.00835020207771
H          -3.32709540513512   -0.23512632285208    0.00848214639020
H          -1.56854056343820   -2.16376573373493   -0.00160118798100
