# ORCA input file
# SCF done        -29.638351479960          0.000571089507
! B3LYP/G D3BJ Opt RIJCOSX def2-SVP def2/J
* xyz 0 1
   C        1.48421         1.07438         0.00164
   N        2.15733        -0.11291        -0.00272
   C        1.28201        -1.15580        -0.00459
   C        0.01494        -0.62731        -0.00029
   C        0.15327         0.78587         0.00350
   S       -1.48211         1.49002         0.01016
   O       -1.75777         2.18946        -1.21504
   O       -1.75068         2.18029         1.24217
   C       -2.26013        -0.14038         0.00649
   C       -1.34812        -1.10698         0.00134
   H        1.99717         2.01422         0.00325
   H        3.16072        -0.20420        -0.00471
   H        1.62044        -2.17243        -0.00835
   H       -3.32710        -0.23513         0.00848
   H       -1.56854        -2.16377        -0.00160
*
