27
 SCF done        -39.850183962986          0.000583913841
C           0.79005861684538   -1.24644312394067   -0.05768944852640
C           1.95385080794620   -0.60933944586751    0.04193503689461
C           3.29446739190065   -1.26813191309477    0.18749108349935
C           3.24225611788684   -2.79014052894704    0.17381289813122
C           1.86103355619406    0.86726591551405    0.03095624321390
C           3.09775294351841    1.71213974833654   -0.07762878572625
C           3.49620613850459    1.86228080889324   -1.54873316683708
C           0.61229062230694    1.34940581812350    0.00461683299313
S          -0.53045965708396   -0.04572149175385   -0.13846350384542
O          -1.15517062547408   -0.02293963622907   -1.43441381527526
O          -1.39090759100860   -0.16038589627418    1.00739947399312
C           0.02204196112357    2.65921941154209   -0.02237538635111
C           0.37630346449804    3.70538108149815    0.71683609569660
H           0.59085097693044   -2.29663344231996   -0.05083158961054
H           3.73598566791269   -0.93352427044878    1.13084178797667
H           3.94802234136643   -0.92377111805424   -0.61727392867559
H           2.63480388856744   -3.16175576753611    0.99474162834276
H           4.24638102064929   -3.19384162226352    0.28088896987567
H           2.82477517172598   -3.15190877235307   -0.76217776619233
H           3.91790196320474    1.26588763874548    0.48449254460136
H           2.90268954670829    2.70188650508274    0.33045483786081
H           3.66505365234744    0.89382319147920   -2.01259169616445
H           4.40650410889308    2.45076794789181   -1.63227593252146
H           2.70396189505022    2.36624043222507   -2.09651027915099
H          -0.84504119077239    2.71757616474384   -0.66986180499371
H           1.19005747386029    3.66235562655307    1.42092336918054
H          -0.16219026360202    4.63521673845403    0.66157630161092
