32
 SCF done        -44.833511766143          0.000642950975
C           2.60474367782459   -0.92105747117687   -0.28142699436472
C           1.23687261238932   -0.70298039311919   -0.17861394999900
N           0.19218115055725   -1.59125615141434   -0.30329391223597
C           0.38027767001095   -3.01907138935302   -0.33738528827608
C           0.53849770604518   -3.59313506387756    1.07017153903363
C          -0.98891831905419   -0.90953247673085   -0.08998758761299
C          -0.69526731175787    0.45607082831790    0.15176795800511
C           0.73020279545658    0.59064466995564    0.07952886663886
C           1.59577924845197    1.66661120384552    0.22607297808679
C           2.95292681298028    1.44185700500835    0.11723161734403
C           3.44725281432710    0.16326789744967   -0.13189863027637
C          -1.70354697290809    1.37023483184891    0.42519159690742
C          -3.00429040367665    0.91570596900680    0.47618946699190
C          -3.29420912722968   -0.42201365460751    0.23437231405437
C          -2.31404978836146   -1.35893107581200   -0.07334264536523
C          -2.73700648483641   -2.73350040919209   -0.38338270076277
C          -3.46966285438490   -3.47371116376060    0.43237640935788
H           3.01128999638493   -1.90344344079148   -0.47016929003321
H           1.27279562461024   -3.23077742910452   -0.93256499304042
H          -0.47243962006402   -3.48565739546210   -0.82831701975899
H           1.38283133607828   -3.12884828401584    1.57524971928474
H           0.70378963482107   -4.66632405349299    1.02230681903878
H          -0.36135017508093   -3.40343894696274    1.65120818871132
H           1.21039050129259    2.65603777610683    0.42169253962515
H           3.64519228699584    2.26328621397707    0.22803813637087
H           4.51486530284472    0.01603606491401   -0.20750422095515
H          -1.46568152418781    2.40825747770354    0.60098090315975
H          -3.81002553525138    1.59934512564683    0.69759517786151
H          -4.32245633299034   -0.75282260288372    0.25802272200564
H          -2.46785080624091   -3.10933791191320   -1.36360616085302
H          -3.75389563454174   -3.11755106096074    1.40884944215205
H          -3.80159828050438   -4.46277468914984    0.16555699890468
