13
 SCF done        -26.545365925525          0.000504044027
C           1.49209703839429    1.24998460849611   -0.17683327731365
S           2.75185407260599    0.10648090818015    0.03818340981701
C           1.62190487694154   -1.16998783561302    0.20246068179501
C           0.33647148892740   -0.73184226093581    0.10594966152985
C           0.25595838941059    0.67808071053939   -0.10909901029493
O          -0.86989988429395    1.43401257901581   -0.28383534741406
C          -2.09168094843844    0.86480179995498    0.03970343374864
S          -2.38108847576816   -0.71426564243537   -0.85660772026992
S          -1.05899191393982   -1.80324012785202    0.27483898169395
H           1.71114860545336    2.28385731473130   -0.34374970224373
H           1.95069614498660   -2.17401614623868    0.37393751542268
H          -2.85901881619470    1.56571465498029   -0.28702501924967
H          -2.18781057808472    0.65224943717688    1.11032639277883
