19
 SCF done        -29.144818606187          0.000508495112
C          -1.57633024696074    1.16661853641852   -0.19103415296093
C          -2.37465040406987    0.00454674636325   -0.10979471360941
C          -1.60197554645532   -1.13068373648012    0.09901137362910
C          -0.24390063496943   -0.69594582531175    0.14174068895936
C          -0.27894306599180    0.76488594556459   -0.03782267461772
N           0.90853031473988    1.43255629167930   -0.04009983765105
C           2.05655904142359    0.74659709980610    0.10968786524585
N           2.12926198643998   -0.54186621400282    0.24476359503913
C           0.99448030404849   -1.26908089356355    0.25418812896351
C          -2.15273517801306   -2.45490954991295    0.24196253760806
C          -1.52344453819383   -3.56126294247172    0.62851839863953
H          -1.93167753921939    2.16872339813015   -0.34218504528079
H          -3.44729096238127    0.00526813605457   -0.19445395329337
H           0.91145828468392    2.43780066460859   -0.16259550044961
H           2.97739382267596    1.31219518176115    0.11104756556691
H           1.15281786340124   -2.33308360876204    0.34955138808412
H          -3.21257616150307   -2.51025794367195    0.01951198316755
H          -0.48082396205640   -3.57674875512712    0.89071493735734
H          -2.04464337759890   -4.50020253108208    0.70456741560237
