# ORCA input file
# SCF done        -29.144818606187          0.000508495112
! B3LYP/G D3BJ Opt RIJCOSX def2-SVP def2/J
* xyz 0 1
   C       -1.57633         1.16662        -0.19103
   C       -2.37465         0.00455        -0.10979
   C       -1.60198        -1.13068         0.09901
   C       -0.24390        -0.69595         0.14174
   C       -0.27894         0.76489        -0.03782
   N        0.90853         1.43256        -0.04010
   C        2.05656         0.74660         0.10969
   N        2.12926        -0.54187         0.24476
   C        0.99448        -1.26908         0.25419
   C       -2.15274        -2.45491         0.24196
   C       -1.52344        -3.56126         0.62852
   H       -1.93168         2.16872        -0.34219
   H       -3.44729         0.00527        -0.19445
   H        0.91146         2.43780        -0.16260
   H        2.97739         1.31220         0.11105
   H        1.15282        -2.33308         0.34955
   H       -3.21258        -2.51026         0.01951
   H       -0.48082        -3.57675         0.89071
   H       -2.04464        -4.50020         0.70457
*
