34
 SCF done        -47.239706981124          0.000477863249
C           1.57362806073497    0.09751936380571   -0.30359726730764
C           0.92744462327745    1.32441451974795   -0.25897254296863
O           1.54564299850630    2.53937109561360   -0.19736331151910
C           2.95680856605277    2.58285588036019   -0.17194675013890
C           3.37327946214659    4.04395094933164   -0.10199193166025
C          -0.46376078208808    1.35212092699402   -0.27333507065106
C          -1.22300940932285    0.19115382671794   -0.33655772896146
C          -0.55079480925103   -1.05384320753286   -0.38118089738569
C           0.83352230763240   -1.07507264881154   -0.36435137828236
O          -1.34698788717627   -2.16441573446276   -0.42459690807684
C          -0.77718953860252   -3.43452343067015   -0.65304706265729
C          -0.34436278442570   -3.63396505749389   -2.10318337691147
C          -2.67233990903983    0.20618897588553   -0.34546092921070
C          -3.46241880731134    1.27279955978056   -0.54380975788428
C          -4.89946431272809    1.19312973637654   -0.53804427314334
C          -5.70129583190229    2.23494122225781   -0.74978581007194
H           2.64967584142630    0.02675798100127   -0.29026516676373
H           3.36690470540261    2.11570972560539   -1.07909494691052
H           3.33713573802737    2.03857027323984    0.70459927558435
H           2.99238251660108    4.57883558399941   -0.96779366530529
H           4.45696845464203    4.12016821745785   -0.08179764751629
H           2.96497153442858    4.50227468589830    0.79472677583302
H          -0.94423656244186    2.31497553896449   -0.22025732354465
H           1.37380831048117   -2.00841024920717   -0.39110983196703
H          -1.58054794034001   -4.13584465388936   -0.40784148242496
H           0.05825423789446   -3.61996587764859    0.03404479821209
H          -1.19323896083808   -3.47626182407216   -2.76419529193067
H           0.02852355501428   -4.64558735845068   -2.23973601553529
H           0.43667287784379   -2.92792367473190   -2.37539794428442
H          -3.13296035101490   -0.76052023567851   -0.19423964157750
H          -3.04150410209425    2.25108114151234   -0.72990232303662
H          -5.32328293653437    0.21491420429636   -0.34788824774427
H          -5.30689125741788    3.21924293944988   -0.94321719366774
H          -6.77364760758236    2.14256760435288   -0.73929913058995
