# ORCA input file
# SCF done        -47.239706981124          0.000477863249
! B3LYP/G D3BJ Opt RIJCOSX def2-SVP def2/J
* xyz 0 1
   C        1.57363         0.09752        -0.30360
   C        0.92744         1.32441        -0.25897
   O        1.54564         2.53937        -0.19736
   C        2.95681         2.58286        -0.17195
   C        3.37328         4.04395        -0.10199
   C       -0.46376         1.35212        -0.27334
   C       -1.22301         0.19115        -0.33656
   C       -0.55079        -1.05384        -0.38118
   C        0.83352        -1.07507        -0.36435
   O       -1.34699        -2.16442        -0.42460
   C       -0.77719        -3.43452        -0.65305
   C       -0.34436        -3.63397        -2.10318
   C       -2.67234         0.20619        -0.34546
   C       -3.46242         1.27280        -0.54381
   C       -4.89946         1.19313        -0.53804
   C       -5.70130         2.23494        -0.74979
   H        2.64968         0.02676        -0.29027
   H        3.36690         2.11571        -1.07909
   H        3.33714         2.03857         0.70460
   H        2.99238         4.57884        -0.96779
   H        4.45697         4.12017        -0.08180
   H        2.96497         4.50227         0.79473
   H       -0.94424         2.31498        -0.22026
   H        1.37381        -2.00841        -0.39111
   H       -1.58055        -4.13584        -0.40784
   H        0.05825        -3.61997         0.03404
   H       -1.19324        -3.47626        -2.76420
   H        0.02852        -4.64559        -2.23974
   H        0.43667        -2.92792        -2.37540
   H       -3.13296        -0.76052        -0.19424
   H       -3.04150         2.25108        -0.72990
   H       -5.32328         0.21491        -0.34789
   H       -5.30689         3.21924        -0.94322
   H       -6.77365         2.14257        -0.73930
*
