21
 SCF done        -37.095065351031          0.000396400310
C          -1.74687194651745   -1.29365479023445    0.54115045835210
S          -2.84297402439416   -0.01416619499855    0.85297700331167
C          -1.79301869903555    1.14561253370954    0.09092869848309
C          -0.65661930450121    0.53147120837704   -0.37574464846184
C          -0.63520509963123   -0.86898694410177   -0.12019968830071
S           0.57811758667566   -2.03259556742612   -0.65443678233791
C           2.18087724589276   -1.17910097277401   -0.32100049433773
C           1.98415123275483   -0.14743090822958    0.75441609993743
O           1.87594878763345   -0.41602142361662    1.92143663159687
C           1.87900658783830    1.26909240047117    0.24434494820916
S           0.69404380653876    1.37228844987328   -1.14544575276665
C          -2.22247651491321    2.52229687589759    0.05101319909059
C          -1.79167452975979    3.45805030091876   -0.78922132698292
H          -1.98224702834775   -2.29528511422103    0.83810532351733
H           2.53984576844984   -0.74875801239401   -1.25427546887720
H           2.84049838713192   -1.97384317549219    0.02527424380290
H           2.83518307129859    1.59483376249785   -0.16628490400340
H           1.56470180576960    1.94457581280857    1.04094248183941
H          -2.99185475170521    2.76061518663347    0.77451892355823
H          -1.05914403125663    3.25816231261994   -1.55127348507039
H          -2.17338834992156    4.46273425968120   -0.73514546056009
