34
 SCF done        -49.100145950897          0.000247035021
C           0.97516492367973    0.14987658590010    1.73089570536174
C          -0.14153210875568   -0.49665225188973    2.23491791978105
C          -1.37166551269947   -0.34841001902575    1.62436738672425
C          -1.50011554906811    0.45074669657899    0.48883510160930
C          -0.37193612861768    1.09560523188141   -0.01738566928356
C           0.85252598234627    0.94599516060039    0.60388915003872
N          -2.74462631882171    0.60613928374257   -0.13386969279090
C          -3.11261842777121    1.85405873850227   -0.64785199370815
C          -3.84896791214400    1.94726268549542   -1.82881735675435
C          -4.21193702036088    3.18325344320977   -2.32715924859539
C          -3.84201786527359    4.34359219376526   -1.66701619823234
C          -3.10571914854325    4.25701725401694   -0.49683443200387
C          -2.74563437235164    3.02563113271153    0.01448500042722
C          -3.61307855096562   -0.48501615822831   -0.24018009381743
C          -4.99199077589348   -0.30870439933610   -0.12466483561051
C          -5.84429758615298   -1.38944436940681   -0.23930854265329
C          -5.34107634297477   -2.66096562381661   -0.46032282252535
C          -3.97209787984527   -2.84295107249495   -0.56843050738495
C          -3.11194681478135   -1.76740390987762   -0.46406949137785
H           1.93408182225777    0.03411075120863    2.21276707871853
H          -0.05650300626522   -1.11450851998431    3.11680659528745
H          -2.24306246157448   -0.84631171963482    2.02418234557781
H          -0.46421919173871    1.71053954136871   -0.90077335013201
H           1.71909508843349    1.44823822078111    0.19939975947992
H          -4.13002109915534    1.04508413148203   -2.35232421494364
H          -4.78087436953359    3.24046335488548   -3.24362236282981
H          -4.12501611185783    5.30766716518173   -2.06147140353274
H          -2.81648345668779    5.15567321953329    0.02821371465563
H          -2.18023349927199    2.96146042448961    0.93276336691902
H          -5.38756749538451    0.67973947475548    0.05787557580621
H          -6.90985517530323   -1.23810615497996   -0.14697878207050
H          -6.01042611119501   -3.50325672997502   -0.54750312015046
H          -3.56995887217799   -3.82979651281139   -0.74559979617805
H          -2.04558865155052   -1.91159724862917   -0.55962478581189
