# ORCA input file
# SCF done        -49.100145950897          0.000247035021
! B3LYP/G D3BJ Opt RIJCOSX def2-SVP def2/J
* xyz 0 1
   C        0.97516         0.14988         1.73090
   C       -0.14153        -0.49665         2.23492
   C       -1.37167        -0.34841         1.62437
   C       -1.50012         0.45075         0.48884
   C       -0.37194         1.09561        -0.01739
   C        0.85253         0.94600         0.60389
   N       -2.74463         0.60614        -0.13387
   C       -3.11262         1.85406        -0.64785
   C       -3.84897         1.94726        -1.82882
   C       -4.21194         3.18325        -2.32716
   C       -3.84202         4.34359        -1.66702
   C       -3.10572         4.25702        -0.49683
   C       -2.74563         3.02563         0.01449
   C       -3.61308        -0.48502        -0.24018
   C       -4.99199        -0.30870        -0.12466
   C       -5.84430        -1.38944        -0.23931
   C       -5.34108        -2.66097        -0.46032
   C       -3.97210        -2.84295        -0.56843
   C       -3.11195        -1.76740        -0.46407
   H        1.93408         0.03411         2.21277
   H       -0.05650        -1.11451         3.11681
   H       -2.24306        -0.84631         2.02418
   H       -0.46422         1.71054        -0.90077
   H        1.71910         1.44824         0.19940
   H       -4.13002         1.04508        -2.35232
   H       -4.78087         3.24046        -3.24362
   H       -4.12502         5.30767        -2.06147
   H       -2.81648         5.15567         0.02821
   H       -2.18023         2.96146         0.93276
   H       -5.38757         0.67974         0.05788
   H       -6.90986        -1.23811        -0.14698
   H       -6.01043        -3.50326        -0.54750
   H       -3.56996        -3.82980        -0.74560
   H       -2.04559        -1.91160        -0.55962
*
