# ORCA input file
# SCF done        -27.559423030067          0.000474154911
! B3LYP/G D3BJ Opt RIJCOSX def2-SVP def2/J
* xyz 0 1
   C       -1.29842        -1.35288         0.15604
   C       -2.14656        -0.31648         0.19209
   C       -1.44982         0.93920        -0.07470
   C       -0.15310         0.61570        -0.31162
   C        0.05093        -0.86904        -0.27149
   C        1.31115        -1.06315         0.56458
   C        2.29799        -0.04175         0.00447
   S        1.33824         1.49300        -0.35001
   C       -2.00622         2.26804        -0.04960
   C       -3.28258         2.56886         0.17227
   H       -1.52823        -2.39030         0.31361
   H       -3.19450        -0.36913         0.42518
   H        0.24552        -1.23747        -1.28858
   H        1.71677        -2.07216         0.49006
   H        1.09193        -0.84474         1.61135
   H        2.73106        -0.38181        -0.93748
   H        3.09705         0.21500         0.69677
   H       -1.28636         3.05717        -0.23354
   H       -4.02747         1.81343         0.35467
   H       -3.62683         3.58846         0.17981
*
