15
 SCF done        -26.057158141738          0.000876934512
C          -2.85527821247343   -0.18387232209638    0.01530808807538
S          -2.05666250888372    1.31888344422733    0.31346599717607
C          -0.52178927014587    0.53083316185952    0.19051087081596
C           0.81776782182464    0.82014638737272    0.27070115228728
C           1.57997168437580   -0.38181884294697    0.05903264516607
C           2.82424015651080    0.13415765356399    0.18577445802719
S           2.24463892802186    1.83407107017005    0.49445973639754
C           0.67175150019700   -1.54910129194320   -0.18277206948572
C          -0.66534354600216   -0.85942290248413   -0.07594339684729
C          -1.99683692503541   -1.24052776041246   -0.17034767381722
H          -3.92664422938965   -0.20222104142435   -0.00576414097010
H           3.83450317099195   -0.21289514512681    0.14428727083169
H           0.78656766963136   -2.33464355959490    0.56767733740565
H           0.81956436840785   -1.99974472488311   -1.16707362730787
H          -2.33662060803105   -2.24213412628131   -0.36510664775465
