16
 SCF done        -29.076194637291          0.000390040717
C          -0.88521866908873    0.64977064820452   -0.23273450848631
S          -1.53299753699077   -0.81089871626071   -0.95571125777132
C          -0.13954460681047   -1.62276035551396   -0.36998120766962
C           0.68477372532895   -0.73502026176070    0.31141189438817
N           0.24298678540236    0.53118338983133    0.37289153104496
C           1.90528625597990   -1.42786464081234    0.82999868047522
C           1.66123266954211   -2.82976693905758    0.35324180965236
C           0.46354536875047   -2.90987591639948   -0.34272662503634
S           0.13960687209908   -4.49805548856422   -0.90899187047768
C           1.61888345478642   -5.04893558646171   -0.20535909877997
C           2.32078335891083   -4.06679493216930    0.42769385584582
H          -1.42650129741040    1.57040764899709   -0.31140448122417
H           1.97567006827182   -1.36564968447462    1.91727456741580
H           2.81980877634179   -1.00232029012903    0.41301520883670
H           1.87930022475767   -6.08363404301831   -0.30719798127250
H           3.26205455012895   -4.23232483241097    0.91977948305886
