# ORCA input file
# SCF done        -29.076194637291          0.000390040717
! B3LYP/G D3BJ Opt RIJCOSX def2-SVP def2/J
* xyz 0 1
   C       -0.88522         0.64977        -0.23273
   S       -1.53300        -0.81090        -0.95571
   C       -0.13954        -1.62276        -0.36998
   C        0.68477        -0.73502         0.31141
   N        0.24299         0.53118         0.37289
   C        1.90529        -1.42786         0.83000
   C        1.66123        -2.82977         0.35324
   C        0.46355        -2.90988        -0.34273
   S        0.13961        -4.49806        -0.90899
   C        1.61888        -5.04894        -0.20536
   C        2.32078        -4.06679         0.42769
   H       -1.42650         1.57041        -0.31140
   H        1.97567        -1.36565         1.91727
   H        2.81981        -1.00232         0.41302
   H        1.87930        -6.08363        -0.30720
   H        3.26205        -4.23232         0.91978
*
