# ORCA input file
# SCF done        -51.773626374237          0.000275338425
! B3LYP/G D3BJ Opt RIJCOSX def2-SVP def2/J
* xyz 0 1
   C       -2.38716         1.41528         0.16820
   S       -3.22006        -0.06012         0.31531
   C       -1.76859        -0.99759         0.17021
   C       -0.66662        -0.16068         0.01175
   C       -1.03104         1.22893         0.01071
   C       -0.03015         2.21390        -0.14338
   C        1.26742         1.82621        -0.28613
   C        2.36195         2.83999        -0.45567
   F        1.89706         4.10191        -0.44519
   F        3.28430         2.78122         0.51919
   F        3.02366         2.70303        -1.61685
   C        1.64599         0.44251        -0.28278
   O        2.97339         0.22521        -0.43073
   C        3.44658        -1.09989        -0.43343
   C        0.69002        -0.52615        -0.13717
   C       -1.79078        -2.42950         0.21646
   C       -2.88352        -3.17523         0.37412
   H       -2.92373         2.34197         0.20337
   H       -0.30209         3.25776        -0.14682
   H        4.52498        -1.02289        -0.55659
   H        3.02445        -1.67214        -1.26538
   H        3.22263        -1.60481         0.51142
   H        0.95468        -1.57001        -0.13377
   H       -0.82590        -2.90722         0.11167
   H       -3.85870        -2.73012         0.48114
   H       -2.83425        -4.24878         0.39986
*
