17
 SCF done        -29.100947584231          0.000549495740
C          -0.29366496646966    1.04809305724138   -0.20597659311249
O          -1.20706968923539    0.12187300777926   -0.55894493835137
C          -0.57927400406777   -1.06883049704425   -0.58147087207219
C           0.73854612944582   -0.93164070615144   -0.24847737976003
C           0.92616047525665    0.46822303963618   -0.00075987089240
O           2.10576267496177    1.04921291677240    0.36148764206372
C           2.05657632256195    2.43986313164886    0.56701859811558
O           1.61343104112399   -1.96795008023023   -0.19790925417728
C           2.92008465072459   -1.68104058447179    0.25321433642995
H          -0.63118450867467    2.06190005703911   -0.13872640346336
H          -1.14908793763607   -1.93437131875495   -0.84571706474475
H           1.35613116146633    2.69748685650023    1.36758518428797
H           1.76300918474186    2.96531409999915   -0.34721187537639
H           3.06429920063671    2.73604074158933    0.85231945111354
H           3.45284634264467   -2.63012850279558    0.22531797066863
H           2.91268930904222   -1.29314464847323    1.27537258680803
H           3.41905461347699   -0.95839057028445   -0.39672151753720
