27
 SCF done        -44.643518191925          0.000563582356
C           1.55776271299505    1.16278814165800    0.04085013484198
S           2.78791186346789   -0.03612934257653    0.03832912078899
C           1.62051796400625   -1.28267277955810   -0.09249396916567
C           0.35021083212315   -0.79111199561617   -0.13014722528655
C           0.31194554262303    0.62884866078545   -0.06181187453409
C          -0.97161843761309    1.40571315209776   -0.04776022923411
C          -2.09435927666921    0.55609707269697   -0.66983617538272
C          -2.16232736200342   -0.83771397908206   -0.04839552971458
C          -0.88218580087080   -1.63667221930163   -0.26786981720015
N          -0.82808519711521   -2.22941281391926   -1.64204135109282
O          -1.55265008757238   -1.77907863308456   -2.49159997680797
O          -0.02789120560812   -3.11823279966103   -1.80319431182230
N          -1.24991762909667    1.82254541772456    1.31087570892021
C          -2.16443549563935    2.81977238289797    1.56368370401315
C          -2.83201807301220    2.97249559094380    2.70103394264100
H           1.82186295675982    2.19796040657231    0.11895683481008
H           1.92966428417755   -2.30729609178765   -0.15172111142797
H          -0.85101253962970    2.32176929890545   -0.63894728778353
H          -1.92709550485905    0.46709514092695   -1.74347297383552
H          -3.04731060864639    1.06490150031093   -0.51457216005869
H          -3.00275367692667   -1.38365926535118   -0.48113456201021
H          -2.33625397742249   -0.75442512315148    1.02643450198867
H          -0.82170555976772   -2.49485323567987    0.41081962882991
H          -1.24025713741121    1.07862210051018    1.99459839803926
H          -2.26192016563177    3.53604677658680    0.75871691058084
H          -2.73946938121339    2.27007043982930    3.51203627639663
H          -3.46829903944400    3.82105219632289    2.86341339350637
