# ORCA input file
# SCF done        -44.643518191925          0.000563582356
! B3LYP/G D3BJ Opt RIJCOSX def2-SVP def2/J
* xyz 0 1
   C        1.55776         1.16279         0.04085
   S        2.78791        -0.03613         0.03833
   C        1.62052        -1.28267        -0.09249
   C        0.35021        -0.79111        -0.13015
   C        0.31195         0.62885        -0.06181
   C       -0.97162         1.40571        -0.04776
   C       -2.09436         0.55610        -0.66984
   C       -2.16233        -0.83771        -0.04840
   C       -0.88219        -1.63667        -0.26787
   N       -0.82809        -2.22941        -1.64204
   O       -1.55265        -1.77908        -2.49160
   O       -0.02789        -3.11823        -1.80319
   N       -1.24992         1.82255         1.31088
   C       -2.16444         2.81977         1.56368
   C       -2.83202         2.97250         2.70103
   H        1.82186         2.19796         0.11896
   H        1.92966        -2.30730        -0.15172
   H       -0.85101         2.32177        -0.63895
   H       -1.92710         0.46710        -1.74347
   H       -3.04731         1.06490        -0.51457
   H       -3.00275        -1.38366        -0.48113
   H       -2.33625        -0.75443         1.02643
   H       -0.82171        -2.49485         0.41082
   H       -1.24026         1.07862         1.99460
   H       -2.26192         3.53605         0.75872
   H       -2.73947         2.27007         3.51204
   H       -3.46830         3.82105         2.86341
*
