22
 SCF done        -36.840111060931          0.000676696560
C          -1.78453857231105    0.95348010840021    0.45360510820436
S          -2.75204091247677   -0.46139149184331    0.34831291307108
C          -1.41718995591924   -1.38337938244932   -0.19480014604522
C          -0.28675844698835   -0.63321754408769   -0.31184727179248
C          -0.49604886215236    0.73216067316509    0.06945846544201
O           0.41734694727513    1.74118839707766    0.07612581078784
C           1.76329287078748    1.38930652867899   -0.17682936018362
C           2.23373816301303    0.21960958256700    0.69102845171978
C           2.00954444758540   -1.11663037891275   -0.01644123693474
S           1.95575219564682   -2.45107602801147    1.26244232581121
C           1.94719322134390   -3.87562733117222    0.14111703266460
O           0.87682013143781   -1.15993739214559   -0.82795011514887
H          -2.21010000636136    1.88077566081943    0.77539690951593
H          -1.53010276608249   -2.42295087667936   -0.42544004288633
H           2.32564050454931    2.29523996778140    0.05892994119207
H           1.90085429478730    1.15422876017627   -1.24142799430140
H           1.67378503819480    0.23518623365626    1.62974609670154
H           3.29189522349005    0.31513629651725    0.93006214166448
H           2.84026374764423   -1.35807124393714   -0.68765426096039
H           1.71563510891622   -4.74886883969751    0.74014472190825
H           2.92630599535569   -3.98323033755618   -0.31806175192082
H           1.18170163226444   -3.71785136234702   -0.61224773850930
