# ORCA input file
# SCF done        -36.840111060931          0.000676696560
! B3LYP/G D3BJ Opt RIJCOSX def2-SVP def2/J
* xyz 0 1
   C       -1.78454         0.95348         0.45361
   S       -2.75204        -0.46139         0.34831
   C       -1.41719        -1.38338        -0.19480
   C       -0.28676        -0.63322        -0.31185
   C       -0.49605         0.73216         0.06946
   O        0.41735         1.74119         0.07613
   C        1.76329         1.38931        -0.17683
   C        2.23374         0.21961         0.69103
   C        2.00954        -1.11663        -0.01644
   S        1.95575        -2.45108         1.26244
   C        1.94719        -3.87563         0.14112
   O        0.87682        -1.15994        -0.82795
   H       -2.21010         1.88078         0.77540
   H       -1.53010        -2.42295        -0.42544
   H        2.32564         2.29524         0.05893
   H        1.90085         1.15423        -1.24143
   H        1.67379         0.23519         1.62975
   H        3.29190         0.31514         0.93006
   H        2.84026        -1.35807        -0.68765
   H        1.71564        -4.74887         0.74014
   H        2.92631        -3.98323        -0.31806
   H        1.18170        -3.71785        -0.61225
*
