29
 SCF done        -44.208988010494          0.000520568939
C           1.39132820112916   -1.31896723213256   -0.07054140711506
S           2.66626612870679   -0.18487922193746    0.06929978791259
C           1.53548495507431    1.12414849164858    0.30284018897104
C           0.24009201878281    0.66782721868824    0.24858367448339
C           0.16636224831443   -0.73482139765576    0.04230548744395
C          -1.12630144275421   -1.48992121134162   -0.07701760539964
C          -1.31073078885952   -1.90798650018668   -1.52775566545328
O          -1.33251048317620   -1.17294339758190   -2.47875349512966
O          -1.45891727538656   -3.23547859668265   -1.61959090191258
C          -1.65615134622602   -3.75703630327716   -2.92763523448052
C          -2.31026558747726   -0.62150591083223    0.37187980773825
C          -2.19935039330205    0.77748517312531   -0.22246471999930
C          -0.99321874569702    1.50559740033554    0.36576823487426
C           2.08559192486172    2.44148263132323    0.50087806358860
C           1.47383752385579    3.49855067690933    1.02811511108053
H           1.61599064494224   -2.35615088889532   -0.22435458361010
H          -1.08383965234159   -2.40850819021216    0.51644937486647
H          -1.83096263249053   -4.82316455680116   -2.80771562541920
H          -0.77174234004456   -3.57916786641794   -3.54269210647364
H          -2.51480596876328   -3.27582413570752   -3.40032608486870
H          -2.30541165375717   -0.55972830016169    1.46281355546667
H          -3.24459011403793   -1.09553748081891    0.06408535856918
H          -3.10755601715330    1.34545869618420   -0.01317996546464
H          -2.08623150650014    0.69720802666958   -1.30415487707798
H          -1.18138481772459    1.72193772570282    1.42338076536506
H          -0.84097216731386    2.45655448345620   -0.14899365878852
H           3.12172518997245    2.53302230907203    0.19787742888132
H           0.46445499006979    3.47045608627822    1.39449797312734
H           1.99011910729644    4.43795227124920    1.12597111882454
