# ORCA input file
# SCF done        -40.106652192672          0.000943161635
! B3LYP/G D3BJ Opt RIJCOSX def2-SVP def2/J
* xyz 0 1
   C       -2.78180        -1.22682         0.00228
   S       -3.97702         0.00056         0.00377
   C       -2.78064         1.22671         0.00094
   C       -1.51467         0.71307         0.00105
   C       -1.51532        -0.71445         0.00191
   C       -0.28258        -1.50753         0.00224
   O       -0.27621        -2.72336         0.00184
   C        0.96476        -0.70333         0.00089
   C        2.17938        -1.38442         0.00071
   C        3.37840        -0.69597         0.00052
   C        3.37894         0.69081         0.00027
   C        2.18043         1.38014         0.00013
   C        0.96533         0.69994         0.00046
   C       -0.28132         1.50512         0.00066
   O       -0.27400         2.72097        -0.00047
   H       -3.06109        -2.26195         0.00326
   H       -3.05864         2.26219         0.00062
   H        2.15642        -2.46424         0.00115
   H        4.31169        -1.23892         0.00058
   H        4.31263         1.23307         0.00010
   H        2.15821         2.45997        -0.00008
*
