16
 SCF done        -30.250230051128          0.000588920510
C          -0.85303112627692   -1.47473700115966    0.05178583477775
C          -2.02754679784046   -0.76872958221453   -0.09656643267936
N          -2.07901816292092    0.59255501164341   -0.20283838283610
C          -1.01112446470114    1.31574041966011   -0.17291710123289
C           0.26411216349514    0.71537527901892   -0.02877371188085
C           0.33140479854182   -0.72278681653791    0.08672847627312
N           1.61017569363297   -1.04188181454514    0.20811850683353
O           2.27845821425896    0.10855058711306    0.17157583752841
N           1.49947930803097    1.17358511689345    0.03071773587500
C          -3.30722692821397   -1.46138914591315   -0.15176536424263
C          -4.46921760091507   -0.83706277746363   -0.30763562441992
H          -0.83057885499964   -2.54829865835128    0.13596309354257
H          -1.12140511989891    2.38728410500828   -0.25983650630659
H          -3.25679538290203   -2.53805062178865   -0.05975179030156
H          -4.50518953939566    0.23441404135241   -0.40146448114104
H          -5.40131619989514   -1.37339814271570   -0.34742008978943
