# ORCA input file
# SCF done        -30.250230051128          0.000588920510
! B3LYP/G D3BJ Opt RIJCOSX def2-SVP def2/J
* xyz 0 1
   C       -0.85303        -1.47474         0.05179
   C       -2.02755        -0.76873        -0.09657
   N       -2.07902         0.59256        -0.20284
   C       -1.01112         1.31574        -0.17292
   C        0.26411         0.71538        -0.02877
   C        0.33140        -0.72279         0.08673
   N        1.61018        -1.04188         0.20812
   O        2.27846         0.10855         0.17158
   N        1.49948         1.17359         0.03072
   C       -3.30723        -1.46139        -0.15177
   C       -4.46922        -0.83706        -0.30764
   H       -0.83058        -2.54830         0.13596
   H       -1.12141         2.38728        -0.25984
   H       -3.25680        -2.53805        -0.05975
   H       -4.50519         0.23441        -0.40146
   H       -5.40132        -1.37340        -0.34742
*
