20
 SCF done        -28.378535371581          0.000867623706
C           1.19730955897883    0.66329708315256    0.12899400106671
O           1.41462604726531   -0.65719465819842    0.20193145042822
C           0.20837781613309   -1.25762166539163    0.15577890499898
C          -0.79188375212241   -0.34308282630853    0.05251448974253
C          -2.25430442718029   -0.60409068528175   -0.02568489885496
C          -0.14419384525715    0.93869372188866    0.03386790176392
C          -0.80163186673174    2.21556823376421   -0.06539547553675
C          -0.18509488280757    3.40726008026260   -0.06609906282873
C          -0.88315569381945    4.66153203044543   -0.16664149019008
C          -0.27674628469091    5.84683573410432   -0.16571802436261
H           2.05839847359708    1.30042309648645    0.15164683275481
H           0.19217599369476   -2.32832224212876    0.20385642710998
H          -2.44790776633864   -1.67216164285261    0.02930444204167
H          -2.66099865660793   -0.22284003613704   -0.96192264594310
H          -2.77480850430378   -0.11121042350610    0.79471102864009
H          -1.88069076766456    2.17975471703856   -0.14301170607679
H           0.89181360186986    3.45932805217136    0.01342375881269
H          -1.96151208460792    4.60606925697488   -0.24720529752997
H           0.79488304368595    5.93001022395387   -0.08862106398091
H          -0.82464600309256    6.76941194956194   -0.24605957205568
