# ORCA input file
# SCF done        -28.378535371581          0.000867623706
! B3LYP/G D3BJ Opt RIJCOSX def2-SVP def2/J
* xyz 0 1
   C        1.19731         0.66330         0.12899
   O        1.41463        -0.65719         0.20193
   C        0.20838        -1.25762         0.15578
   C       -0.79188        -0.34308         0.05251
   C       -2.25430        -0.60409        -0.02568
   C       -0.14419         0.93869         0.03387
   C       -0.80163         2.21557        -0.06540
   C       -0.18509         3.40726        -0.06610
   C       -0.88316         4.66153        -0.16664
   C       -0.27675         5.84684        -0.16572
   H        2.05840         1.30042         0.15165
   H        0.19218        -2.32832         0.20386
   H       -2.44791        -1.67216         0.02930
   H       -2.66100        -0.22284        -0.96192
   H       -2.77481        -0.11121         0.79471
   H       -1.88069         2.17975        -0.14301
   H        0.89181         3.45933         0.01342
   H       -1.96151         4.60607        -0.24721
   H        0.79488         5.93001        -0.08862
   H       -0.82465         6.76941        -0.24606
*
