13
 SCF done        -23.940846800876          0.000783372434
C           2.42511737743447    0.70922462626879    0.00019266760472
N           1.33929170042501    1.42386269495589   -0.00104170586562
C           0.17806344079452    0.72548918528517   -0.00166308675595
C          -1.09408174633890    1.24555464825251   -0.00258592430344
S          -2.26628882751961    0.00628413423993   -0.00540448520999
C          -1.09923864130494   -1.23781339303706   -0.00196466211034
C           0.17505189940230   -0.72303509378565   -0.00129852250273
N           1.33336540631352   -1.42621652395405   -0.00032739383855
C           2.42215335904678   -0.71610159233640    0.00054731288401
H           3.36044636253699    1.25263121994167    0.00255247513074
H          -1.38621541468635    2.27570736765553   -0.00278632530534
H          -1.39562351875492   -2.26675082605930   -0.00164312065231
H           3.35521860265113   -1.26338644742702    0.00317277092479
