13
 SCF done        -26.515963050754          0.000661937850
C           1.51780006714487    1.29892600286924    0.19185518177878
S           2.78456789920248    0.14520141378931    0.15451110681523
C           1.66684801287134   -1.13519885729165   -0.08090417834753
C           0.37793942141647   -0.69670455740062   -0.11211532413298
C           0.29193037618104    0.72082322450405    0.04755319024800
O          -0.85126700730039    1.45317441585371    0.13181811147824
S          -2.16108741450550    0.94013696526367   -0.76411861249024
C          -2.35904851711917   -0.66690140759810    0.04069692360368
S          -0.97840676579022   -1.78986597992001   -0.37417213300939
H           1.72294170428238    2.33843300704496    0.34345539768642
H           2.01044488822264   -2.14370366784268   -0.18371544944087
H          -3.26492863033840   -1.12749508400895   -0.34119708030742
H          -2.40996403426758   -0.52547547526295    1.11870286611810
