# ORCA input file
# SCF done        -26.515963050754          0.000661937850
! B3LYP/G D3BJ Opt RIJCOSX def2-SVP def2/J
* xyz 0 1
   C        1.51780         1.29893         0.19186
   S        2.78457         0.14520         0.15451
   C        1.66685        -1.13520        -0.08090
   C        0.37794        -0.69670        -0.11212
   C        0.29193         0.72082         0.04755
   O       -0.85127         1.45317         0.13182
   S       -2.16109         0.94014        -0.76412
   C       -2.35905        -0.66690         0.04070
   S       -0.97841        -1.78987        -0.37417
   H        1.72294         2.33843         0.34346
   H        2.01044        -2.14370        -0.18372
   H       -3.26493        -1.12750        -0.34120
   H       -2.40996        -0.52548         1.11870
*
