28
 SCF done        -42.495714657329          0.000946477723
C           1.66921702599632   -1.14712615461863   -0.17566327124931
S           2.86046736349137   -0.04909161430301   -0.73221068140418
C           1.66241410146471    1.19051934995029   -0.98919053525548
C           0.41298575801627    0.74038494116182   -0.63372477060807
C           0.42311720210199   -0.59964824684005   -0.16781339620089
C          -0.80164028789177   -1.30159464943897    0.32785576938588
C          -2.07796866645962   -0.57369133465727   -0.11928479010827
C          -2.31525940941752   -0.78021310442462   -1.52647843340668
N          -2.49831948149971   -0.95403836490330   -2.64137619925665
C          -1.94754926215204    0.93160828011980    0.18890627944485
O          -1.69601332898635    1.02528953893987    1.57536802286198
C          -1.79417841644692    2.31760587655790    2.11542340159332
C          -0.84830485739653    1.54281171382084   -0.69147013902058
C           2.11815283180583    2.45923893229288   -1.49982879510655
C           1.38779380025166    3.39019807948435   -2.10736173187952
H           1.95587984521215   -2.13708352624095    0.11909343782751
H          -0.78851777520907   -1.30643806698338    1.42080130037076
H          -0.81459804397747   -2.33728144542243   -0.01953463558376
H          -2.93428575514097   -0.97744984407878    0.43299798607173
H          -2.90172061959994    1.43939235322109   -0.04262100557017
H          -1.75287430575281    2.19580200334215    3.19633209090226
H          -2.74322024677003    2.79318013548476    1.83800491576125
H          -0.96685165846372    2.96190838134000    1.79838677815774
H          -0.65017596381272    2.57160026173210   -0.38263649441223
H          -1.22234755062730    1.56969261062077   -1.72027097828853
H           3.18319124948753    2.62256587399694   -1.37999411449028
H           0.33930181341913    3.27309017948435   -2.31252566949667
H           1.84038463835794    4.30500784035834   -2.44925434103926
