# ORCA input file
# SCF done        -39.559799217926          0.000332406415
! B3LYP/G D3BJ Opt RIJCOSX def2-SVP def2/J
* xyz 0 1
   C        2.47000        -1.14691         0.00008
   C        1.12481        -0.80422        -0.01747
   N        0.01229        -1.61142        -0.04444
   C        0.01751        -3.04875        -0.00960
   C        0.00940        -3.58275         1.42243
   C       -1.10708        -0.81358        -0.02227
   C       -0.71428         0.54654        -0.01644
   C        0.72050         0.55256        -0.01350
   C        1.67310         1.56280        -0.00182
   C        3.00835         1.21348         0.01112
   C        3.39839        -0.12404         0.01388
   C       -1.67549         1.54863        -0.00832
   C       -3.00776         1.18793        -0.00085
   C       -3.38645        -0.15285        -0.00024
   C       -2.44934        -1.16778        -0.01056
   H        2.79097        -2.17803         0.00685
   H        0.90728        -3.40438        -0.53675
   H       -0.86209        -3.41118        -0.54923
   H        0.88742        -3.23153         1.95954
   H        0.01166        -4.66965         1.41831
   H       -0.87700        -3.23520         1.94802
   H        1.37055         2.59928        -0.00159
   H        3.76534         1.98367         0.02133
   H        4.45105        -0.36660         0.02903
   H       -1.38181         2.58766        -0.00656
   H       -3.77131         1.95165         0.00667
   H       -4.43706        -0.40435         0.01049
   H       -2.76144        -2.20162        -0.00561
*
