# ORCA input file
# SCF done        -30.750699646134          0.000521905711
! B3LYP/G D3BJ Opt RIJCOSX def2-SVP def2/J
* xyz 0 1
   C        1.55710         1.20447        -0.01026
   S        2.66310        -0.04578         0.40744
   C        1.38229        -1.19460         0.44899
   C        0.17730        -0.64062         0.15532
   C        0.27964         0.75465        -0.11355
   C       -0.90332         1.58701        -0.49529
   C       -2.20913         0.92519        -0.03754
   C       -2.22436        -0.53509        -0.51579
   C       -1.13211        -1.36647         0.15519
   C       -2.34962         1.01651         1.45273
   C       -3.45331         1.38946         2.07138
   H        1.92217         2.20155        -0.15767
   H        1.60018        -2.21542         0.69313
   H       -0.92252         1.69824        -1.58458
   H       -0.81461         2.58766        -0.06585
   H       -3.05284         1.44666        -0.50276
   H       -2.07619        -0.54465        -1.59845
   H       -3.19891        -0.97953        -0.30471
   H       -1.02633        -2.32712        -0.35505
   H       -1.42004        -1.58113         1.18908
   H       -1.46531         0.75984         2.02086
   H       -4.34460         1.65925         1.52772
   H       -3.51858         1.44193         3.14495
*
