23
 SCF done        -30.750699646134          0.000521905711
C           1.55710329895007    1.20447188400709   -0.01025566231023
S           2.66310211426799   -0.04577998571557    0.40743659343753
C           1.38228652733433   -1.19460104500726    0.44899328166770
C           0.17730235191349   -0.64061719170003    0.15531652843781
C           0.27964120713843    0.75465014029668   -0.11355279974279
C          -0.90332201156159    1.58700599200841   -0.49528832145079
C          -2.20912745579490    0.92518824139512   -0.03753707372669
C          -2.22436062857881   -0.53509019286548   -0.51579108536818
C          -1.13210603637637   -1.36647067099366    0.15519276558944
C          -2.34961518597783    1.01651170103438    1.45272958526348
C          -3.45331342890730    1.38946057123345    2.07138254088950
H           1.92217048400585    2.20154960895467   -0.15766856710817
H           1.60017624429404   -2.21541517055506    0.69313310199943
H          -0.92252465745852    1.69824450565115   -1.58457885852731
H          -0.81460860626082    2.58766150215606   -0.06585499787024
H          -3.05283643776380    1.44665726429581   -0.50276382739715
H          -2.07618935771248   -0.54464548562157   -1.59844778513105
H          -3.19890851545496   -0.97953134832990   -0.30471288421438
H          -1.02632960357502   -2.32712385814219   -0.35504900028203
H          -1.42004372845030   -1.58112751362475    1.18907910388909
H          -1.46530959213055    0.75984097628236    2.02085569832404
H          -4.34459823321894    1.65925307265370    1.52772444809731
H          -3.51857874868212    1.44192700258639    3.14494721553307
