# ORCA input file
# SCF done        -42.189901684481          0.000446602929
! B3LYP/G D3BJ Opt RIJCOSX def2-SVP def2/J
* xyz 0 1
   C        0.89715         1.56237        -0.12231
   C       -0.07651         0.60056        -0.06901
   C        0.46951        -0.72346         0.00666
   S       -0.77200        -1.94368         0.07421
   C       -2.01013        -0.70263         0.00141
   C       -3.40428        -1.16193         0.01960
   O       -3.71068        -2.32749         0.08563
   O       -4.26602        -0.14507        -0.03517
   C       -5.65356        -0.48047        -0.04856
   C       -6.11899        -0.86351        -1.44606
   C       -1.49995         0.55974        -0.06933
   F       -2.23782         1.66915        -0.13514
   C        1.82884        -0.74393         0.00911
   S        2.45673         0.85717        -0.07866
   H        0.78355         2.62544        -0.18257
   H       -6.16104         0.41898         0.30492
   H       -5.82480        -1.30799         0.64802
   H       -5.89596        -0.06326        -2.14795
   H       -7.19066        -1.04067        -1.43634
   H       -5.61496        -1.77095        -1.77015
   H        2.49250        -1.58175         0.05692
*
