21
 SCF done        -42.189901684481          0.000446602929
C           0.89715253756763    1.56236982627505   -0.12231209607877
C          -0.07651343932095    0.60055619954838   -0.06900738667124
C           0.46951064794803   -0.72346061830245    0.00665799444674
S          -0.77199633935222   -1.94367992677112    0.07420532419611
C          -2.01013395845199   -0.70263361173791    0.00140674085211
C          -3.40428486035046   -1.16192601436220    0.01960209366599
O          -3.71067668536313   -2.32748731422107    0.08562522108658
O          -4.26602252658138   -0.14507421580650   -0.03517451509822
C          -5.65356401861802   -0.48046588304370   -0.04855855625091
C          -6.11898658858025   -0.86351468485221   -1.44606369979927
C          -1.49995073035072    0.55973652550694   -0.06932843888852
F          -2.23782263395218    1.66914729884234   -0.13513935829067
C           1.82884070770963   -0.74392839339529    0.00910529649021
S           2.45672535957902    0.85716683290854   -0.07866272763480
H           0.78354629832351    2.62543990525635   -0.18257233725370
H          -6.16104110598081    0.41897655796533    0.30492154669024
H          -5.82479522864623   -1.30799427491797    0.64802126976135
H          -5.89596066216844   -0.06325902860606   -2.14795078821111
H          -7.19066316640668   -1.04067259718022   -1.43633552233205
H          -5.61495761710352   -1.77095119363714   -1.77014554580324
H           2.49250401009890   -1.58174538946915    0.05691548512316
