# ORCA input file
# SCF done        -29.554060948822          0.000682263282
! B3LYP/G D3BJ Opt RIJCOSX def2-SVP def2/J
* xyz 0 1
   C        0.10834         1.16965         0.02777
   S       -0.97443        -0.16380         0.05219
   C        0.31816        -1.32303         0.01734
   C        1.53377        -0.65100        -0.01547
   C        1.39629         0.76417        -0.01715
   N        2.84958        -1.19125        -0.03129
   O        3.03326        -2.33338         0.33844
   O        3.73726        -0.44788        -0.40234
   C       -0.11439        -2.69755        -0.04343
   C        0.61747        -3.80726        -0.11896
   H       -0.27549         2.16942         0.04756
   H        2.24818         1.41906        -0.04163
   H       -1.19492        -2.78497        -0.03831
   H        1.69223        -3.80529        -0.10588
   H        0.13166        -4.76616        -0.18378
*
