# ORCA input file
# SCF done        -32.271528382127          0.000347720826
! B3LYP/G D3BJ Opt RIJCOSX def2-SVP def2/J
* xyz 0 1
   C        1.19470         0.28387        -0.03385
   C        0.78907        -1.01852        -0.03452
   C       -0.67055        -1.05072        -0.04087
   C       -1.12124         0.21561        -0.04102
   C        0.03123         1.11569        -0.03952
   C       -0.02875         2.48579        -0.04083
   C        1.12370         3.38588        -0.04418
   C        0.67298         4.65220        -0.04645
   C       -0.78662         4.61998        -0.03992
   C       -1.19222         3.31760        -0.03669
   N       -1.55462         5.75154        -0.10467
   N        1.55703        -2.15021        -0.09712
   H        2.20907         0.63306        -0.03166
   H       -1.24950        -1.95716        -0.04488
   H       -2.14359         0.54141        -0.04334
   H        2.14606         3.06007        -0.04594
   H        1.25193         5.55864        -0.05225
   H       -2.20657         2.96838        -0.03375
   H       -1.12613         6.61266         0.19243
   H       -2.53068         5.65263         0.12157
   H        2.53314        -2.05097         0.12872
   H        1.12853        -3.01081         0.20139
*
