22
 SCF done        -32.271528382127          0.000347720826
C           1.19470474060211    0.28386598004372   -0.03385433170026
C           0.78907387506341   -1.01852284266091   -0.03451743688592
C          -0.67054957151390   -1.05072165387491   -0.04087498174884
C          -1.12123803748017    0.21560812318413   -0.04101758017257
C           0.03122701335818    1.11569081089137   -0.03951605154289
C          -0.02874559638351    2.48578699645071   -0.04082948159693
C           1.12369927066647    3.38588302294703   -0.04417634182799
C           0.67298459482505    4.65220057418318   -0.04645009846609
C          -0.78662212863328    4.61997944210032   -0.03992078207778
C          -1.19222137824827    3.31759658545338   -0.03669147290258
N          -1.55462048694339    5.75153849009167   -0.10467255761792
N           1.55703101138855   -2.15020709629363   -0.09711802771975
H           2.20907020645717    0.63305837286815   -0.03166207206653
H          -1.24950175788835   -1.95716396013487   -0.04487797856315
H          -2.14359057652951    0.54141083658303   -0.04333967752073
H           2.14605796270506    3.06007152540740   -0.04594302740300
H           1.25193071245749    5.55863875886111   -0.05224858783116
H          -2.20657314495603    2.96837502640818   -0.03374913749122
H          -1.12613273310557    6.61265634331370    0.19243037150635
H          -2.53068006089790    5.65263438873183    0.12156511086143
H           2.53313751417442   -2.05096529442117    0.12872148820805
H           1.12852857088199   -3.01081443013341    0.20139265455949
