24
 SCF done        -35.064558229611          0.000192189595
C           0.00136204758558    1.39374738769730    0.00145512902068
C           1.21665026438145    0.71473089473807    0.00079974897805
C           1.21687700961211   -0.71573170645785   -0.00120751719806
C           2.46187026314670   -1.39535149325763   -0.00299340582514
C           3.63513142635166   -0.70582763539800   -0.00245179923196
C           3.63490827116965    0.70560853231487    0.00026494179385
C           2.46142423065188    1.39475441556743    0.00184081606474
C           0.00180585885968   -1.39513085683325   -0.00142216716485
C          -1.21348021785123   -0.71611893372486   -0.00041344467034
C          -1.21370875111617    0.71434558829540    0.00052349478707
C          -2.45870017878159    1.39397242847249    0.00038070394056
C          -3.63196458482114    0.70445052508349   -0.00014692250892
C          -3.63173862327576   -0.70698668625591   -0.00031310618288
C          -2.45825755223469   -1.39613772935624   -0.00050096027400
H           0.00119035467591    2.47550389762230    0.00261669796751
H           2.45589075505766   -2.47631545403745   -0.00492861522409
H           4.57933286650470   -1.23085607713983   -0.00410660983797
H           4.57894150852310    1.23094380358136    0.00092293851425
H           2.45509554178226    2.47571464111252    0.00384281973424
H           0.00197836735054   -2.47688852042625   -0.00251744408687
H          -2.45271210849688    2.47493742009778    0.00064892489029
H          -4.57616962766973    1.22947999879045   -0.00027910594322
H          -4.57577683810332   -1.23231264408533   -0.00023081638147
H          -2.45193028330237   -2.47710179640085   -0.00072430116148
