# ORCA input file
# SCF done        -35.064558229611          0.000192189595
! B3LYP/G D3BJ Opt RIJCOSX def2-SVP def2/J
* xyz 0 1
   C        0.00136         1.39375         0.00146
   C        1.21665         0.71473         0.00080
   C        1.21688        -0.71573        -0.00121
   C        2.46187        -1.39535        -0.00299
   C        3.63513        -0.70583        -0.00245
   C        3.63491         0.70561         0.00026
   C        2.46142         1.39475         0.00184
   C        0.00181        -1.39513        -0.00142
   C       -1.21348        -0.71612        -0.00041
   C       -1.21371         0.71435         0.00052
   C       -2.45870         1.39397         0.00038
   C       -3.63196         0.70445        -0.00015
   C       -3.63174        -0.70699        -0.00031
   C       -2.45826        -1.39614        -0.00050
   H        0.00119         2.47550         0.00262
   H        2.45589        -2.47632        -0.00493
   H        4.57933        -1.23086        -0.00411
   H        4.57894         1.23094         0.00092
   H        2.45510         2.47571         0.00384
   H        0.00198        -2.47689        -0.00252
   H       -2.45271         2.47494         0.00065
   H       -4.57617         1.22948        -0.00028
   H       -4.57578        -1.23231        -0.00023
   H       -2.45193        -2.47710        -0.00072
*
