# ORCA input file
# SCF done        -46.764638585848          0.000648718780
! B3LYP/G D3BJ Opt RIJCOSX def2-SVP def2/J
* xyz 0 1
   C        0.23463         1.27746        -0.04711
   C        1.38951         0.50645        -0.01918
   N        2.65844         0.93959         0.02454
   S        3.63130        -0.32922         0.04529
   N        2.54036        -1.49765         0.00224
   C        1.31926        -0.94320        -0.03153
   C        0.09538        -1.59825        -0.07687
   C       -1.05516        -0.82112        -0.10862
   C       -0.98575         0.61588        -0.08743
   N       -2.13268         1.34305        -0.09626
   C       -3.27735         0.72773        -0.13893
   C       -4.49877         1.59452        -0.06968
   C       -4.95340         1.74437         1.38469
   C       -3.34572        -0.70966        -0.19476
   C       -4.63937        -1.45344        -0.34055
   C       -5.00856        -1.57462        -1.82163
   N       -2.26573        -1.43341        -0.17098
   H        0.27415         2.35370        -0.03382
   H        0.03073        -2.67327        -0.09107
   H       -5.30651         1.17864        -0.67164
   H       -4.23542         2.57797        -0.46082
   H       -5.19927         0.77807         1.82055
   H       -5.83200         2.38264         1.43825
   H       -4.15942         2.19406         1.97562
   H       -5.44037        -0.95308         0.20308
   H       -4.50137        -2.45336         0.07260
   H       -5.11317        -0.59363        -2.28052
   H       -5.94791        -2.11089        -1.93078
   H       -4.23216        -2.11960        -2.35262
*
