29
 SCF done        -46.764638585848          0.000648718780
C           0.23463329319003    1.27745878477449   -0.04710641851433
C           1.38950700716834    0.50645450614690   -0.01917561084613
N           2.65844385109711    0.93958641482607    0.02454189168052
S           3.63130155380029   -0.32922146154655    0.04528625752633
N           2.54036445510845   -1.49764545163156    0.00224126189061
C           1.31926456891431   -0.94319588692868   -0.03152565945923
C           0.09537926189893   -1.59824970533628   -0.07687441018955
C          -1.05515780102211   -0.82112088954301   -0.10861539336372
C          -0.98575440435535    0.61588202580841   -0.08742783108750
N          -2.13268405906679    1.34304949224388   -0.09626434080109
C          -3.27734785203538    0.72773370471934   -0.13892650114170
C          -4.49877466961997    1.59451622565972   -0.06967998024698
C          -4.95340275320312    1.74436966467125    1.38468678802079
C          -3.34571867146887   -0.70966480593666   -0.19476288424713
C          -4.63937163892657   -1.45344043094059   -0.34054929557867
C          -5.00855636923292   -1.57461908359730   -1.82162679591519
N          -2.26572554536032   -1.43340699977071   -0.17097946707345
H           0.27414695574934    2.35370004526310   -0.03382195885417
H           0.03072714303782   -2.67327041323789   -0.09106870295073
H          -5.30651489041556    1.17863706123322   -0.67164227444747
H          -4.23541969152029    2.57796651706208   -0.46081591371979
H          -5.19926615800790    0.77806907896840    1.82055290984875
H          -5.83199628459052    2.38264262577063    1.43824520146970
H          -4.15941673658009    2.19405970470457    1.97562003688336
H          -5.44036901409668   -0.95308464806994    0.20307964596227
H          -4.50137378925890   -2.45335835350401    0.07260460062805
H          -5.11316511977005   -0.59362783542232   -2.28052105161722
H          -5.94791191655390   -2.11089217021687   -1.93078126187708
H          -4.23216072487930   -2.11959771616961   -2.35262284197920
