# ORCA input file
# SCF done        -26.265771299209          0.000539172049
! B3LYP/G D3BJ Opt RIJCOSX def2-SVP def2/J
* xyz 0 1
   C       -0.97801         0.04213         0.10484
   O       -0.08440         1.03567         0.01483
   C        1.14499         0.46800        -0.09856
   C        1.02426        -0.90800        -0.07065
   C       -0.36739        -1.17868         0.05957
   C       -1.04993        -2.50264         0.12751
   C        2.12210        -1.91130        -0.14196
   C        2.25561         1.37777        -0.20768
   C        3.52637         1.07473        -0.45825
   H       -2.01099         0.31524         0.19646
   H       -0.32853        -3.31470         0.13267
   H       -1.70750        -2.63377        -0.73092
   H       -1.65635        -2.57146         1.02926
   H        2.91253        -1.65846         0.56324
   H        2.55131        -1.94151        -1.14385
   H        1.74994        -2.90406         0.09921
   H        1.96707         2.41292        -0.07386
   H        3.86533         0.06906        -0.62258
   H        4.27388         1.84663        -0.51660
*
