19
 SCF done        -26.265771299209          0.000539172049
C          -0.97800913162942    0.04213355488529    0.10483660371262
O          -0.08439773711854    1.03566623034314    0.01483009675639
C           1.14499422216131    0.46799900802963   -0.09855917094650
C           1.02426321812458   -0.90800286912659   -0.07065108869121
C          -0.36739181203681   -1.17867634012847    0.05957098042222
C          -1.04992876478567   -2.50264237216309    0.12750809003968
C           2.12210496787185   -1.91129641017836   -0.14195650554305
C           2.25560689289865    1.37777109621018   -0.20768195420051
C           3.52637028162262    1.07472705593805   -0.45825349423651
H          -2.01098922304871    0.31524296182720    0.19646027975138
H          -0.32852677084316   -3.31469504070321    0.13266805613741
H          -1.70750125124084   -2.63376991850921   -0.73091819697172
H          -1.65635382034604   -2.57146483188960    1.02925653596252
H           2.91252747033453   -1.65845961414260    0.56324280536822
H           2.55131405154215   -1.94150639845496   -1.14385073012440
H           1.74994011103149   -2.90405619475215    0.09920838268818
H           1.96707382503966    2.41291692530652   -0.07385786795921
H           3.86533395628604    0.06906346806393   -0.62258163977381
H           4.27387951413625    1.84662968944434   -0.51660118239166
