7
 SCF done        -14.355674824517          0.000389277406
C          -0.09434305939480    1.17224968546988   -0.00807593121956
S           1.18934773617347    0.00066412103429   -0.01064206925485
C          -0.09129756589602   -1.17423868936511   -0.00511120967278
N          -1.26614955442414   -0.66410767533793   -0.00174978596031
N          -1.26786680306079    0.65908086148237   -0.00339477614774
H           0.09765018687409    2.22566583106823   -0.00982815254891
H           0.10342905972819   -2.22715413435172   -0.00419807519585
