# ORCA input file
# SCF done        -27.178047830376          0.000554201011
! B3LYP/G D3BJ Opt RIJCOSX def2-SVP def2/J
* xyz 0 1
   C        1.44726        -1.00324        -0.00181
   S        2.31983         0.48965         0.00182
   C        0.89018         1.46241         0.00403
   C       -0.19169         0.65146         0.00276
   C        0.12183        -0.73615        -0.00053
   O       -1.05431        -1.42374        -0.00172
   C       -2.05618        -0.49905         0.00151
   O       -3.21007        -0.75974         0.00070
   O       -1.54919         0.76656         0.00346
   H        1.96357        -1.93954        -0.00431
   H        0.95390         2.52974         0.00628
*
