11
 SCF done        -27.178047830376          0.000554201011
C           1.44725576235553   -1.00323682880673   -0.00180660183783
S           2.31982619146301    0.48965224816554    0.00182103591509
C           0.89017614645054    1.46241488308913    0.00403453761583
C          -0.19168779716514    0.65145593240340    0.00276030146683
C           0.12183403573476   -0.73614763444951   -0.00052706017398
O          -1.05431252603282   -1.42373646838402   -0.00172422564154
C          -2.05618049704499   -0.49905217230231    0.00151314150894
O          -3.21006531104219   -0.75974230042771    0.00069582895003
O          -1.54919431598088    0.76656139101356    0.00346425315080
H           1.96357006368955   -1.93954269797101   -0.00430950456129
H           0.95389824757263    2.52974364766964    0.00627829360713
