30
 SCF done        -45.137974241758          0.000788717010
C           0.98866102808632    0.50817359784827   -0.11737744064870
C           0.55960651903730   -0.75541198631671    0.02531211315413
C          -0.89622966303537   -0.74200014003244    0.12286782601691
O          -1.50861932055208   -1.94043615333786    0.20458291348742
C          -2.91122790730130   -2.00700112071544    0.29535081415106
C          -1.34690443723733    0.55049472194983    0.05468528199522
C          -0.16655529909473    1.39968730048926   -0.06302355571098
C          -0.05350040084008    2.76054481704256    0.00684734369259
C           1.16744965082636    3.50965392091787   -0.17698229366653
C           0.88542088935178    4.82467732106694    0.00566665929952
O           1.66874034688025    5.91642617777088   -0.06507271587396
C           3.02589824982939    5.69626659685288   -0.36902321439530
C          -0.53149111485888    4.96457005001039    0.34104151085237
C          -1.08876967598580    3.74318630690036    0.33231646521141
C          -2.72868555025932    1.01854724849077   -0.01452495307052
C          -3.18531343838512    1.82554923756393   -0.96372247411956
H           2.00600986049839    0.83742098477002   -0.19280967334055
H           1.13632990876148   -1.65999520452438    0.05777220730816
H          -3.16721391868099   -3.05958044565553    0.17500827032025
H          -3.39150637272021   -1.41866244523669   -0.49075895020191
H          -3.25929301645415   -1.66385126762124    1.27397487132223
H           2.11122075732690    3.07871412968130   -0.44485806484125
H           3.50303527735349    6.67471896076680   -0.36894403194878
H           3.13774660907105    5.23248506600931   -1.35374547618327
H           3.49719779155106    5.05613833882579    0.38300708884826
H          -0.99542477042078    5.90805650854924    0.55632042072167
H          -2.10491615577120    3.49610873497955    0.56355702572031
H          -3.40850253231810    0.66144069429531    0.74961820335113
H          -2.54467657671138    2.19438770557268   -1.74662709564398
H          -4.21204673794711    2.15026034308590   -0.98706907580631
