# ORCA input file
# SCF done        -45.137974241758          0.000788717010
! B3LYP/G D3BJ Opt RIJCOSX def2-SVP def2/J
* xyz 0 1
   C        0.98866         0.50817        -0.11738
   C        0.55961        -0.75541         0.02531
   C       -0.89623        -0.74200         0.12287
   O       -1.50862        -1.94044         0.20458
   C       -2.91123        -2.00700         0.29535
   C       -1.34690         0.55049         0.05469
   C       -0.16656         1.39969        -0.06302
   C       -0.05350         2.76054         0.00685
   C        1.16745         3.50965        -0.17698
   C        0.88542         4.82468         0.00567
   O        1.66874         5.91643        -0.06507
   C        3.02590         5.69627        -0.36902
   C       -0.53149         4.96457         0.34104
   C       -1.08877         3.74319         0.33232
   C       -2.72869         1.01855        -0.01452
   C       -3.18531         1.82555        -0.96372
   H        2.00601         0.83742        -0.19281
   H        1.13633        -1.66000         0.05777
   H       -3.16721        -3.05958         0.17501
   H       -3.39151        -1.41866        -0.49076
   H       -3.25929        -1.66385         1.27397
   H        2.11122         3.07871        -0.44486
   H        3.50304         6.67472        -0.36894
   H        3.13775         5.23249        -1.35375
   H        3.49720         5.05614         0.38301
   H       -0.99542         5.90806         0.55632
   H       -2.10492         3.49611         0.56356
   H       -3.40850         0.66144         0.74962
   H       -2.54468         2.19439        -1.74663
   H       -4.21205         2.15026        -0.98707
*
