38
 SCF done        -60.756234537949          0.000445296709
C          -2.38352257946007    1.00161850802954    0.57402356837468
C          -1.16005824672529    1.57624372537180    0.25745868585670
C          -0.08354024654891    0.73201779864270    0.06350126003384
C          -0.21776731697518   -0.65513188980224    0.18963399019549
C          -1.43858877993010   -1.21459734617906    0.48991820421495
C          -2.52644634794203   -0.37085298918945    0.68217261898202
C           1.12418106866581   -1.28130137519428   -0.03144112992416
C           2.00652886419150   -0.07525004689707   -0.35153492918363
O           3.18743944767188   -0.08126917253934   -0.60995330704677
N           1.23041078099944    1.04642178391313   -0.25735384289864
C           1.72875809152264    2.37296596770627   -0.52633901752454
C           1.33668310827229    2.84804969277420   -1.92238246312218
C           1.66188162018071   -2.00779234958698    1.21788850323856
C           0.81795424812953   -3.25237788707551    1.50034921759364
O           0.64023929754802   -4.20153032003349    0.77840997322371
N           0.26084504379739   -3.08588446247093    2.73701579173492
C           0.63811453067943   -1.89082330730077    3.33141796438312
C           0.27886254754985   -1.37784034944714    4.56090369600688
C           0.81301212567843   -0.14912811806073    4.92516892666363
C           1.68098739322408    0.53115605400079    4.08816467759637
C           2.03641088454306    0.00705683738009    2.85071590275509
C           1.50436346674186   -1.20537964084153    2.47374257000840
H          -3.23950499420661    1.64062631435070    0.73182037545823
H          -1.06348028295133    2.64701172253833    0.16986954298274
H          -1.55143151601308   -2.28525027089107    0.56466350806873
H          -3.49227921064803   -0.79106539196331    0.91745702133888
H           1.13125994136667   -1.99142409829713   -0.86403947689968
H           2.81782867431698    2.32068914159162   -0.44475361822983
H           1.34433189628918    3.05566877329077    0.23721214393172
H           1.75730193528141    2.18247171344053   -2.67197162560839
H           1.71761618190804    3.85091889891654   -2.09364575109024
H           0.25502121844088    2.85835908936011   -2.03572405673691
H           2.70135111556714   -2.28847846746869    1.02236680950074
H          -0.35496745651253   -3.76170225869911    3.16102560164478
H          -0.39124430117712   -1.91131074577289    5.21718716713084
H           0.54954112311466    0.27794365195040    5.88095989403038
H           2.08952944274516    1.47982584671795    4.40116811492892
H           2.72208723066489    0.53439496773801    2.20574348838436
