# ORCA input file
# SCF done        -27.730840951211          0.000389152375
! B3LYP/G D3BJ Opt RIJCOSX def2-SVP def2/J
* xyz 0 1
   C        0.89104         1.53680         0.16226
   S        2.31746         0.57440         0.11553
   C        1.45665        -0.93825        -0.07300
   C        0.11823        -0.64947        -0.09311
   C       -0.20632         0.73731         0.03834
   N       -1.58154         0.84944        -0.00090
   C       -1.99559        -0.35487        -0.14172
   O       -1.05318        -1.32986        -0.20707
   C        2.15596        -2.18833        -0.17697
   C        1.54790        -3.36290        -0.32371
   H        0.95792         2.59832         0.27481
   H       -3.02379        -0.65345        -0.21072
   H        3.23388        -2.11934        -0.12838
   H        0.47522        -3.43767        -0.37312
   H        2.10618        -4.27877        -0.39803
*
