15
 SCF done        -27.730840951211          0.000389152375
C           0.89103910371986    1.53679892970375    0.16226416275238
S           2.31746069201712    0.57440198195581    0.11553483901969
C           1.45665203312670   -0.93825370568768   -0.07299985869226
C           0.11823440118828   -0.64947462847873   -0.09311179098485
C          -0.20632369269473    0.73731037424438    0.03833929295854
N          -1.58154076476560    0.84944079460629   -0.00090321281168
C          -1.99559079968793   -0.35486694404209   -0.14171637729332
O          -1.05317615892490   -1.32986216782329   -0.20706536820206
C           2.15595602231566   -2.18833092805666   -0.17696753856077
C           1.54789695624239   -3.36289557139564   -0.32370627774507
H           0.95791968026415    2.59831633200880    0.27481399935338
H          -3.02378511339173   -0.65344644384449   -0.21072296851956
H           3.23388492980338   -2.11934424567053   -0.12837514240826
H           0.47522034328544   -3.43767317444880   -0.37312013059103
H           2.10618236750197   -4.27877060307107   -0.39803362827518
