# ORCA input file
# SCF done        -31.298680970715          0.000520252001
! B3LYP/G D3BJ Opt RIJCOSX def2-SVP def2/J
* xyz 0 1
   N       -0.96878        -1.39392        -0.29618
   C        0.24398        -0.73493        -0.15914
   C        1.48133        -1.29414        -0.20461
   S        2.73079        -0.11232        -0.07855
   C        1.56973         1.15627         0.04527
   C        0.28820         0.69270        -0.00566
   N       -0.88458         1.42580         0.06880
   C       -2.10059         0.73372        -0.29643
   C       -2.09313        -0.68562         0.27342
   C       -0.87996         2.77771         0.31903
   C       -1.87857         3.63386         0.12075
   H       -0.93192        -2.38235        -0.09090
   H        1.73604        -2.32841        -0.31469
   H        1.92353         2.16162         0.14005
   H       -2.20347         0.68014        -1.38838
   H       -2.94899         1.28221         0.11513
   H       -3.01375        -1.20071        -0.00926
   H       -2.04296        -0.63099         1.37335
   H        0.05082         3.12857         0.73958
   H       -2.82160         3.36254        -0.31683
   H       -1.76338         4.66427         0.40002
*
