# ORCA input file
# SCF done        -50.724239744835          0.000992749360
! B3LYP/G D3BJ Opt RIJCOSX def2-SVP def2/J
* xyz 0 1
   C       -1.60189         1.22256         0.06858
   S       -2.78796         0.00927         0.09499
   C       -1.61563        -1.26870         0.03354
   C       -0.32961        -0.74229        -0.00695
   C       -0.32346         0.69756         0.01428
   C        0.89495         1.39235        -0.01862
   C        2.08523         0.69385        -0.07749
   C        3.30603         1.49075        -0.11082
   O        3.35698         2.69533        -0.05108
   C        4.64998         0.71280        -0.23944
   F        4.69645        -0.04643        -1.34895
   F        5.68607         1.54616        -0.29640
   F        4.86647        -0.11076         0.80196
   C        2.07610        -0.73267        -0.10211
   C        0.90766        -1.42701        -0.06590
   C       -2.00369        -2.64883         0.03197
   C       -3.26030        -3.08917         0.05688
   H       -1.88435         2.25594         0.09414
   H        0.91136         2.47160        -0.00100
   H        3.00355        -1.27791        -0.14748
   H        0.91905        -2.50543        -0.08348
   H       -1.18501        -3.35495         0.00945
   H       -4.09612        -2.40937         0.07791
   H       -3.48840        -4.13944         0.05770
*
