24
 SCF done        -50.724239744835          0.000992749360
C          -1.60188936596155    1.22255711626199    0.06858386074114
S          -2.78796138726862    0.00927493266903    0.09498724619028
C          -1.61562866474285   -1.26870006187002    0.03354220155213
C          -0.32960917803710   -0.74228650153823   -0.00695323830115
C          -0.32346117673802    0.69756216382495    0.01427920304859
C           0.89495198246833    1.39234678051334   -0.01862351624096
C           2.08522531650428    0.69384821262644   -0.07748918146344
C           3.30602960795654    1.49075223744011   -0.11081623719218
O           3.35697840218967    2.69532846911379   -0.05108250506453
C           4.64997938934627    0.71279885123115   -0.23944015630728
F           4.69644619191030   -0.04643415728784   -1.34894736349469
F           5.68606940869391    1.54616058169309   -0.29639825727056
F           4.86646939941275   -0.11075948419729    0.80195920919679
C           2.07610086433288   -0.73266514269040   -0.10211281125371
C           0.90765996585178   -1.42700587059305   -0.06590387630867
C          -2.00369141201162   -2.64883051298516    0.03196541123289
C          -3.26029897481861   -3.08916632733339    0.05687778985801
H          -1.88434650295317    2.25594363855973    0.09414477127791
H           0.91136432390317    2.47160107502975   -0.00099889154843
H           3.00354926258941   -1.27791174624334   -0.14748230474705
H           0.91905137261256   -2.50543443490067   -0.08347967711367
H          -1.18501209489907   -3.35495494672152    0.00945313122208
H          -4.09611725343440   -2.40936654385574    0.07790642268291
H          -3.48839947690696   -4.13943832874703    0.05769876930366
