25
 SCF done        -36.615518154575          0.000445695187
C          -1.01228086281151    1.12235557987721   -0.08138952451820
C           0.26814625934538    0.62723639091838   -0.05508662909542
N           1.41792076995212    1.33602087341237   -0.14812465296486
C           2.53582021676295    0.66771556261763   -0.10397366149098
C           3.78857222260109    1.49282484332562   -0.14474085688352
C           4.25513165157137    1.81849241571545    1.27651428554686
C           2.56430567256343   -0.76915719212920    0.02740072050238
C           3.84409018423413   -1.55203823621237   -0.00635609784910
C           4.22050107517580   -1.88012483359505   -1.45358240159248
N           1.47425486928380   -1.47585809389873    0.13084164172770
C           0.29727548781884   -0.80786908585666    0.09820464691208
C          -0.96196468480822   -1.34805725933832    0.18670323645385
S          -2.15954634415711   -0.13359104055225    0.08066235643379
H          -1.32928881435519    2.13990632228764   -0.18342313283882
H           3.55726178741567    2.42505424806685   -0.66189938440198
H           4.57948178154096    0.97557919584995   -0.68750666344534
H           3.48203012181890    2.37487904096787    1.80079048455092
H           5.15855440982757    2.42293789540940    1.24478626200747
H           4.46444132589149    0.91080154131802    1.83907092305544
H           3.67984464041849   -2.48470373763306    0.53510352127209
H           4.65325611675915   -1.00290505089226    0.47420312091042
H           3.42553381403311   -2.45695597785668   -1.91963597337127
H           5.13671195013803   -2.46502982228768   -1.47944560092459
H           4.37129248503035   -0.97273025199749   -2.03509543327088
H          -1.23712613605068   -2.37631332751668    0.30269881327436
