25
 SCF done        -36.120714275517          0.000625545341
C           1.48440784390781    1.18880238929826   -0.19234128861746
S           2.67796509090277   -0.01134352293994    0.11590596936607
C           1.45647240395491   -1.19107610603359    0.38705378159070
C           0.20501672175909   -0.68092094782835    0.24390476652964
C           0.21989238523008    0.70170757210673   -0.09554589236543
C          -1.03318202632819    1.47433521692999   -0.35239579355012
C          -2.23629200179836    0.80358917162126    0.31301793165174
C          -2.28081656608697   -0.68927424253312   -0.10045763676591
O          -2.35124936037800   -0.71553555626219   -1.51210089319902
C          -2.83776658254359   -1.90965854311048   -2.06301207213047
C          -1.06420156930555   -1.44704425450901    0.45480999565961
N          -2.19025360412438    1.03078869281148    1.74351442714228
H           1.79166330839213    2.18664012318804   -0.43362423449650
H           1.73869985840667   -2.19431861851483    0.63851775981024
H          -1.21372682340940    1.50892133303529   -1.42905738136042
H          -0.93909296604689    2.49538303039774    0.01957119364961
H          -3.15297804599908    1.27485168107168   -0.06135713126427
H          -3.19719949625738   -1.14809284198004    0.31547610825852
H          -2.91030121328862   -1.74122103523687   -3.13578669609555
H          -3.83102225449157   -2.15527476263678   -1.66475215204526
H          -2.16754857819323   -2.75797844562505   -1.88119793781371
H          -0.99064705753029   -2.42893299685637   -0.01818665801532
H          -1.21623259271977   -1.62174597521397    1.52553302872492
H          -1.30535859198788    0.71249391692171    2.12305004154331
H          -2.93817828206440    0.53326472189843    2.21405076379280
