# ORCA input file
# SCF done        -36.120714275517          0.000625545341
! B3LYP/G D3BJ Opt RIJCOSX def2-SVP def2/J
* xyz 0 1
   C        1.48441         1.18880        -0.19234
   S        2.67797        -0.01134         0.11591
   C        1.45647        -1.19108         0.38705
   C        0.20502        -0.68092         0.24390
   C        0.21989         0.70171        -0.09555
   C       -1.03318         1.47434        -0.35240
   C       -2.23629         0.80359         0.31302
   C       -2.28082        -0.68927        -0.10046
   O       -2.35125        -0.71554        -1.51210
   C       -2.83777        -1.90966        -2.06301
   C       -1.06420        -1.44704         0.45481
   N       -2.19025         1.03079         1.74351
   H        1.79166         2.18664        -0.43362
   H        1.73870        -2.19432         0.63852
   H       -1.21373         1.50892        -1.42906
   H       -0.93909         2.49538         0.01957
   H       -3.15298         1.27485        -0.06136
   H       -3.19720        -1.14809         0.31548
   H       -2.91030        -1.74122        -3.13579
   H       -3.83102        -2.15527        -1.66475
   H       -2.16755        -2.75798        -1.88120
   H       -0.99065        -2.42893        -0.01819
   H       -1.21623        -1.62175         1.52553
   H       -1.30536         0.71249         2.12305
   H       -2.93818         0.53326         2.21405
*
