13
 SCF done        -21.020794343398          0.000562510658
C           0.22265109280685    1.12448123271027   -0.12731230908926
S           1.25827658997335   -0.39168140981685   -0.28584142007677
C          -0.36979577654228   -0.95244475532040   -0.02915867794162
C          -0.98446302450260    0.24701660004485    0.06425211316188
C          -2.35962487842527    0.66341886442277    0.28314888883638
O          -2.67203449527060    1.83483364124792    0.35340298513572
C          -3.35757942763524   -0.46444995444441    0.41377482440800
H           0.22976265160696    1.72267777214147   -1.03411744238342
H           0.50638757409454    1.72763089077492    0.73042026156227
H          -0.69253759301544   -1.97414556592144    0.02552695187970
H          -3.07739060940723   -1.11338713469782    1.24059727200991
H          -3.36404698700650   -1.05597274175767   -0.49932267257412
H          -4.34888511667653   -0.05600743938364    0.58968922507134
