# ORCA input file
# SCF done        -21.020794343398          0.000562510658
! B3LYP/G D3BJ Opt RIJCOSX def2-SVP def2/J
* xyz 0 1
   C        0.22265         1.12448        -0.12731
   S        1.25828        -0.39168        -0.28584
   C       -0.36980        -0.95244        -0.02916
   C       -0.98446         0.24702         0.06425
   C       -2.35962         0.66342         0.28315
   O       -2.67203         1.83483         0.35340
   C       -3.35758        -0.46445         0.41377
   H        0.22976         1.72268        -1.03412
   H        0.50639         1.72763         0.73042
   H       -0.69254        -1.97415         0.02553
   H       -3.07739        -1.11339         1.24060
   H       -3.36405        -1.05597        -0.49932
   H       -4.34889        -0.05601         0.58969
*
