26
 SCF done        -50.201733577389          0.000284069705
C           2.16209447743994   -0.25911351254679   -1.18388707304687
C           3.44043493761567   -0.13460136566686   -0.77954253580114
C           3.42344149407099    0.56981436926195    0.48763223669659
C           2.12809037472498    0.84851638624923    0.83102826280159
O           1.78479174740293    1.53630324909176    1.99746929781009
C           2.89638032120271    1.87227638589722    2.71018021371015
C           4.15138960173813    1.59494404853887    2.37276119521191
O           4.51343417685350    0.90636152647528    1.21520116072383
C           1.27164111583586    0.35436237390970   -0.18340904561988
C          -0.10531297326472    0.39590757138042   -0.28365282893848
C          -1.07169251006322    0.89708052155224    0.62289395901645
C          -2.31564660132871    0.72920974915210    0.07700312221730
O          -3.48078785142084    1.08424109149490    0.66623072590994
C          -3.25731116866490    1.64348978081965    1.92405091711379
C          -2.05299985826545    1.80460213380757    2.46209224716212
O          -0.86788493904692    1.45832216265631    1.88572243370459
C          -2.18519486173579    0.10860476032917   -1.22683016613600
C          -0.87183817468440   -0.09699510668360   -1.44117614492477
H           1.81761182248985   -0.73693136273137   -2.07870383338413
H           4.33369511750821   -0.47378133064928   -1.26606303255166
H           2.65419529628469    2.40773002271195    3.61318900414002
H           5.00525713000068    1.87720131937352    2.96045046263444
H          -4.17216030837308    1.92872274262021    2.40957348193099
H          -1.91853245474137    2.23966089954042    3.43851520410045
H          -3.01366842489943   -0.12470260778170   -1.86632941752097
H          -0.42609748667983   -0.53290580880168   -2.31227984696065
