24
 SCF done        -34.841026108941          0.000523768407
C           1.47759216118827    1.14704903647651    0.31224721173556
S           2.70489289061379   -0.05416774410735    0.37112972042888
C           1.54690847065454   -1.28767861479746    0.05537514734434
C           0.28957318565401   -0.79497079494032   -0.08889378299694
C           0.24864206553357    0.62018857495617    0.06072614140153
C          -1.01158896936021    1.42793118635157   -0.02920607067396
C          -1.24217606160622    2.21359971417729    1.26132110157321
O          -1.42038147609555    3.40471972326776    1.23686997717856
C          -1.25260399613699    1.42601166976229    2.54375214265717
C          -2.23469790890317    0.55682876434836   -0.38158123441390
C          -2.16130288882570   -0.86035494887810    0.17940003057817
C          -0.94224258606719   -1.58862587124914   -0.38158624432986
H           1.73331697911446    2.17619228923650    0.46893070297195
H           1.86783822935682   -2.30828579077795   -0.00899292243338
H          -0.89505439629576    2.18569197233246   -0.81359832169128
H          -2.23003696041211    0.95902518683135    2.65743468898764
H          -1.09754030176398    2.09642773219982    3.38554901027464
H          -0.49191556423275    0.65092393326551    2.53575576651366
H          -2.30231986577487    0.48890502306773   -1.46972048503927
H          -3.13971016375348    1.05606923118745   -0.02862903241314
H          -3.07035352375718   -1.39968347070877   -0.09416653054098
H          -2.09994757401336   -0.84193653136431    1.26755577311466
H          -1.05075525311740   -1.69746677251596   -1.46554435004818
H          -0.85712649199963   -2.59036349812124    0.04376155982126
