# ORCA input file
# SCF done        -29.597927641963          0.000931537029
! B3LYP/G D3BJ Opt RIJCOSX def2-SVP def2/J
* xyz 0 1
   C       -1.49306        -1.24284         0.10948
   S       -2.67819        -0.02397         0.21280
   C       -1.50888         1.22178         0.16989
   C       -0.23129         0.72457         0.07807
   C       -0.21945        -0.71719         0.04257
   C        1.01046        -1.40170        -0.05087
   C        2.17800        -0.68266        -0.10541
   C        3.46649        -1.37140        -0.20041
   O        4.54592        -0.83609        -0.24684
   C        2.15919         0.74364        -0.06953
   C        0.99636         1.43513         0.01898
   H       -1.78195        -2.27454         0.10277
   H       -1.81829         2.24644         0.21401
   H        1.02041        -2.48179        -0.07794
   H        3.37734        -2.47682        -0.23018
   H        3.11258         1.24754        -0.11583
   H        0.98151         2.51389         0.04594
*
