# ORCA input file
# SCF done        -29.106427196974          0.000707497748
! B3LYP/G D3BJ Opt RIJCOSX def2-SVP def2/J
* xyz 0 1
   C       -0.40489        -1.32795         0.06295
   S        1.27494        -0.81862        -0.46133
   C        1.01572         0.79678         0.02449
   C       -0.39355         1.11593         0.12166
   N       -0.77192         2.36889         0.20160
   N       -2.01953         2.71619         0.44819
   C       -1.20691        -0.06061         0.14873
   S       -2.84589        -0.20572         0.27245
   C        2.15166         1.64589         0.16732
   C        2.14046         2.95146         0.44769
   H       -0.31598        -1.77957         1.05449
   H       -0.82977        -2.05850        -0.62341
   H        0.90496        -0.99146        -1.84790
   H       -2.20022         3.70402         0.39466
   H       -2.78069         2.04299         0.44601
   H        3.09915         1.12892         0.05691
   H        1.21957         3.49308         0.54654
   H        3.05990         3.49260         0.58460
*
