# ORCA input file
# SCF done        -42.409940795059          0.000845944032
! B3LYP/G D3BJ Opt RIJCOSX def2-SVP def2/J
* xyz 0 1
   C       -0.86834         1.30882         0.30017
   S       -2.09950         0.12843         0.24163
   C       -0.99213        -1.18045        -0.00057
   C        0.30849        -0.69006        -0.02927
   C        0.37106         0.73806         0.13981
   N        1.55791         1.39212         0.12521
   C        2.63014         0.67085        -0.03916
   C        3.94703         1.40719        -0.06368
   N        3.84454         2.84514         0.06302
   C        2.57142        -0.75923        -0.19208
   C        3.82664        -1.57975        -0.36199
   N        3.61311        -3.00562        -0.48565
   N        1.44124        -1.41048        -0.18950
   C       -1.48687        -2.51860        -0.14607
   C       -0.71794        -3.58818        -0.34622
   H       -1.10767         2.34225         0.44490
   H        4.46416         1.18021        -1.00276
   H        4.57677         1.03442         0.75242
   H        3.26749         3.20934        -0.68889
   H        3.36330         3.07325         0.92742
   H        4.48441        -1.40402         0.49690
   H        4.35946        -1.23404        -1.25511
   H        3.12275        -3.34639         0.33530
   H        3.01136        -3.18944        -1.28237
   H       -2.56412        -2.61577        -0.09009
   H        0.35138        -3.49707        -0.40336
   H       -1.14191        -4.57073        -0.45315
*
