# ORCA input file
# SCF done        -25.408700443823          0.000281480545
! B3LYP/G D3BJ Opt RIJCOSX def2-SVP def2/J
* xyz 0 1
   C        1.57643        -1.18493         0.00095
   C        0.28484        -0.76128         0.00045
   C       -0.95497        -1.46484         0.00120
   C       -2.11163        -0.76374         0.00056
   C       -2.12506         0.66957        -0.00106
   C       -0.98171         1.39223        -0.00191
   C        0.27101         0.71198        -0.00113
   C        1.55447         1.15987        -0.00146
   C        2.43376        -0.00429        -0.00081
   C        3.77227         0.00769        -0.00080
   H        1.93957        -2.19503         0.00211
   H       -0.94779        -2.54537         0.00232
   H       -3.06271        -1.27707         0.00124
   H       -3.08556         1.16502        -0.00133
   H       -0.99486         2.47270        -0.00291
   H        1.89834         2.17671        -0.00241
   H        4.32887         0.93057        -0.00047
   H        4.34477        -0.90543         0.00158
*
