18
 SCF done        -25.408700443823          0.000281480545
C           1.57643111291518   -1.18493376610223    0.00095354114191
C           0.28483769556886   -0.76128399390243    0.00045494794817
C          -0.95496738139674   -1.46484001117813    0.00120083188679
C          -2.11163374174864   -0.76373937435268    0.00055849954888
C          -2.12506441059318    0.66956934263979   -0.00105587541428
C          -0.98170713915055    1.39223111730140   -0.00190922246017
C           0.27101471255910    0.71197610598576   -0.00112699518732
C           1.55447163256310    1.15987041843653   -0.00146387509845
C           2.43375627847034   -0.00428687898841   -0.00081475858043
C           3.77226519370335    0.00769420879693   -0.00079826832269
H           1.93957155800212   -2.19503438922897    0.00210630251586
H          -0.94779454041229   -2.54536850503040    0.00232110980464
H          -3.06271015032999   -1.27706776492459    0.00123532542403
H          -3.08556019924309    1.16501735107690   -0.00133228984147
H          -0.99485715954532    2.47269626684705   -0.00290695342655
H           1.89833645472009    2.17670911308151   -0.00241059891728
H           4.32886929692900    0.93056922163893   -0.00046654677880
H           4.34477078698868   -0.90542846209697    0.00158482575715
