18
 SCF done        -34.151530625070          0.000934012679
C          -0.29234120150084   -1.75479311423988    0.13749254274447
N          -1.61029966564462   -1.42198760458418    0.25742169780691
C          -1.82521975680545   -0.03118153638160    0.15962512501657
O          -2.91399313663872    0.49066651108821    0.23750083225821
C          -0.49030395535974    0.49348529473417   -0.03833508289855
C           0.42889760535290   -0.61472248699171   -0.04430807874695
C           1.76704187695596   -0.07983251949992   -0.24513941395995
O           2.85522595531249   -0.59776399767193   -0.32074372392134
N           1.54834463363576    1.30337643206297   -0.34692364987684
C           0.22313863840840    1.65345004698421   -0.22698300260002
C          -0.28323707898334    2.99577669670010   -0.29605092115995
C           0.44720751012016    4.08812326482657   -0.51830750047991
H           0.03187568007441   -2.77754104128770    0.18971914069388
H          -2.36193460450496   -2.07797082290164    0.39965906807889
H           2.30165580764994    1.95693137784617   -0.48769843401128
H          -1.35250791078379    3.06643999127528   -0.15289104515840
H           1.51373928637482    4.05707500403216   -0.66923915963874
H          -0.00673968366336    5.06226850400871   -0.55846839414698
