24
 SCF done        -34.841341481214          0.000859906690
C           1.50544161376720    1.13667245268712    0.29222866931525
S           2.68272050143751   -0.11718534781357    0.34817668728457
C           1.46111254510128   -1.30543375593979    0.10855816283743
C           0.22182462755236   -0.76145863439447   -0.00786235494900
C           0.24817388046123    0.65916390173304    0.09863598998310
C          -0.98641959640923    1.49518896043467   -0.04020925577813
C          -2.25493805190377    0.66616020513493    0.16171022398906
C          -2.58917673340530    0.27084973652511    1.59701981242273
O          -3.60185905079285   -0.34085975015928    1.83540803457617
C          -1.62697065113179    0.67130760404419    2.68212025272264
C          -2.17168297480760   -0.61390832004874   -0.68645208516201
C          -1.05406835346852   -1.52414704615480   -0.18000254826165
H           1.81705489918296    2.15627606487961    0.40286339970862
H           1.73533451205918   -2.34081283325412    0.07037102729405
H          -1.00987702125967    1.90609691374658   -1.05559990498791
H          -0.95080815610995    2.34548631127243    0.64295584658152
H          -3.11587677475298    1.24756031760142   -0.19031942375603
H          -1.94262366741804    0.23553477311962    3.62604113157704
H          -1.61543363362488    1.75529577178493    2.77779706422742
H          -0.61997368290791    0.34249070478535    2.43946737738121
H          -1.98354504802768   -0.33951556504660   -1.72654797967198
H          -3.12361671799072   -1.14338600920501   -0.63472928529885
H          -0.90308600299433   -2.35743175418190   -0.86976379043201
H          -1.34768646255667   -1.95042470155177    0.78527294839666
