16
 SCF done        -36.896639934404          0.000129224371
C           1.43379453833477    0.78393380557604    0.00844336351244
C           0.17126366594736    1.29274983396724    0.00223618513572
C          -0.21667045296349    2.72457013390252    0.00986056868160
F           0.85791667685121    3.52811073896122    0.02423782619727
F          -0.94226425524553    3.08297892434531   -1.06664692919317
F          -0.95947198180533    3.06749572271476    1.07950654037468
S          -1.04111951924309    0.04690611551517   -0.01885858466854
C           0.20138424765036   -1.16273416237766   -0.01875453432000
O          -0.21127458075877   -2.43922839759390   -0.03406787435831
C           0.79328104519331   -3.43357121123213   -0.04893371463551
C           1.45669751276466   -0.62514181411482   -0.00362070126383
H           2.31696841763755    1.39649078133050    0.02121983820583
H           0.26556905282635   -4.38463134902133   -0.06571722338788
H           1.41856285124255   -3.37400576064702    0.84622946274773
H           1.42141831950249   -3.34379005862958   -0.93958556347284
H           2.36546446206562   -1.19653330269633   -0.00065865955520
