# ORCA input file
# SCF done        -36.896639934404          0.000129224371
! B3LYP/G D3BJ Opt RIJCOSX def2-SVP def2/J
* xyz 0 1
   C        1.43379         0.78393         0.00844
   C        0.17126         1.29275         0.00224
   C       -0.21667         2.72457         0.00986
   F        0.85792         3.52811         0.02424
   F       -0.94226         3.08298        -1.06665
   F       -0.95947         3.06750         1.07951
   S       -1.04112         0.04691        -0.01886
   C        0.20138        -1.16273        -0.01875
   O       -0.21127        -2.43923        -0.03407
   C        0.79328        -3.43357        -0.04893
   C        1.45670        -0.62514        -0.00362
   H        2.31697         1.39649         0.02122
   H        0.26557        -4.38463        -0.06572
   H        1.41856        -3.37401         0.84623
   H        1.42142        -3.34379        -0.93959
   H        2.36546        -1.19653        -0.00066
*
