# ORCA input file
# SCF done        -37.167339587130          0.000259876866
! B3LYP/G D3BJ Opt RIJCOSX def2-SVP def2/J
* xyz 0 1
   C       -0.91213         1.36570        -0.05822
   S       -2.11699         0.19011        -0.38450
   C       -0.97320        -1.08538        -0.45215
   C        0.29588        -0.62495        -0.23015
   C        0.33185         0.79859        -0.00609
   N        1.51052         1.45226         0.19346
   C        2.58586         0.71920         0.20261
   C        2.53989        -0.73650         0.05502
   N        3.71293        -1.44371         0.10274
   C        3.65343        -2.88746         0.06290
   N        1.43080        -1.37690        -0.17570
   N        3.79672         1.32323         0.41733
   C        3.86035         2.76658         0.45734
   H       -1.18057         2.39429         0.06733
   H       -1.29349        -2.08914        -0.64133
   H        4.41797        -1.06715         0.71999
   H        3.26353        -3.31362         0.99250
   H        4.65289        -3.27592        -0.12462
   H        2.98567        -3.17330        -0.74661
   H        4.58632         0.87754        -0.02705
   H        3.02501         3.12126         1.05625
   H        3.78245         3.21493        -0.53793
   H        4.80114         3.06522         0.91685
*
