# ORCA input file
# SCF done        -24.274464145212          0.000653961815
! B3LYP/G D3BJ Opt RIJCOSX def2-SVP def2/J
* xyz 0 1
   C        0.09974         1.16090         0.12550
   S       -1.07192        -0.07408         0.26465
   C        0.16147        -1.26086         0.02419
   N       -0.19570        -2.62188         0.02882
   O        0.68921        -3.43505        -0.14557
   O       -1.36956        -2.88350         0.20592
   C        1.40724        -0.71289        -0.15380
   C        1.36281         0.68669        -0.09413
   H       -0.20196         2.18630         0.21303
   H        2.29030        -1.30282        -0.31723
   H        2.22406         1.31897        -0.20819
*
