17
 SCF done        -31.797919073138          0.000778438772
C           1.49025448147536   -1.30831970759242   -0.24818769409382
S           2.76449481302746   -0.17013250235495   -0.23288412789937
C           1.66917000470647    1.14495249986427    0.08805850990337
C           0.36857274761397    0.69079033345978    0.14687761553130
C           0.27652296086818   -0.71889944800886   -0.04657278422570
O          -0.86211250317606   -1.46171173851271   -0.11783898117974
S          -2.16198269374567   -0.99128331657928    0.81189517759860
C          -2.38744898539710    0.62205102260606    0.02910489250139
S          -1.00993000868561    1.74636738590693    0.44169894230294
C           2.23490265217945    2.45932955898379    0.22745234049270
C           1.60862452956892    3.55989168779723    0.63674172124046
H           1.67336022591068   -2.34709842171733   -0.43016511706131
H          -3.28874942620099    1.07553403011772    0.42978317584470
H          -2.45440553615089    0.49218337331456   -1.04942512078316
H           3.28715686717364    2.50494191718577   -0.02708276688220
H           0.57393788497605    3.56591369271494    0.92975200395197
H           2.13113198585605    4.49845963281450    0.69735221275800
