# ORCA input file
# SCF done        -31.797919073138          0.000778438772
! B3LYP/G D3BJ Opt RIJCOSX def2-SVP def2/J
* xyz 0 1
   C        1.49025        -1.30832        -0.24819
   S        2.76449        -0.17013        -0.23288
   C        1.66917         1.14495         0.08806
   C        0.36857         0.69079         0.14688
   C        0.27652        -0.71890        -0.04657
   O       -0.86211        -1.46171        -0.11784
   S       -2.16198        -0.99128         0.81190
   C       -2.38745         0.62205         0.02910
   S       -1.00993         1.74637         0.44170
   C        2.23490         2.45933         0.22745
   C        1.60862         3.55989         0.63674
   H        1.67336        -2.34710        -0.43017
   H       -3.28875         1.07553         0.42978
   H       -2.45441         0.49218        -1.04943
   H        3.28716         2.50494        -0.02708
   H        0.57394         3.56591         0.92975
   H        2.13113         4.49846         0.69735
*
