# ORCA input file
# SCF done        -30.852010701978          0.000753646717
! B3LYP/G D3BJ Opt RIJCOSX def2-SVP def2/J
* xyz 0 1
   C        1.41440        -0.89446        -0.12876
   S        1.87827         0.76224        -0.19119
   C        0.24666         1.29817         0.03474
   C       -0.60715         0.21688         0.15129
   C        0.07210        -1.04258         0.05646
   O       -0.63588        -2.18688         0.15380
   C        0.08088        -3.39481         0.05780
   C       -1.99611         0.27638         0.34228
   N       -3.13319         0.28850         0.49836
   C       -0.01150         2.71290         0.07402
   C       -1.20086         3.28658         0.24293
   H        2.16714        -1.64867        -0.23353
   H       -0.65783        -4.18672         0.16199
   H        0.82473        -3.47922         0.85655
   H        0.58023        -3.48383        -0.91230
   H        0.87377         3.32595        -0.04716
   H       -2.10368         2.71484         0.36747
   H       -1.29858         4.35784         0.25919
*
