# ORCA input file
# SCF done        -37.922777657625          0.000457205699
! B3LYP/G D3BJ Opt RIJCOSX def2-SVP def2/J
* xyz 0 1
   C       -0.81184         0.32034         0.79662
   O       -0.82780        -0.98765         1.15836
   C        0.00454        -1.60334         0.32696
   C        0.56961        -0.71543        -0.57996
   C        0.02536         0.54769        -0.26195
   C        1.48774        -1.44767        -1.48613
   O        2.15957        -1.03074        -2.39460
   C        1.38154        -2.85983        -0.99418
   C        0.49664        -2.92600         0.08104
   S        0.32821        -4.51118         0.68197
   C        1.45622        -5.11298        -0.51729
   C        1.92420        -4.10082        -1.33032
   C        1.75721        -6.51777        -0.53181
   C        2.59292        -7.11628        -1.37869
   H       -1.43355         0.98335         1.36394
   H        0.21698         1.48664        -0.73801
   H        2.62433        -4.25525        -2.12959
   H        1.24431        -7.10279         0.22055
   H        3.12424        -6.57378        -2.14061
   H        2.76938        -8.17593        -1.33091
*
