31
 SCF done        -38.556272770405          0.000553441282
C          -1.92125067572254    0.84680959101940    0.05163369429761
N          -0.70813076455381    1.43276375383602    0.07643319000767
C          -0.35299009224684    2.82896844824524    0.15632713922716
C          -1.55911594765718    3.75322189897124    0.13449136697506
N           0.26693581153227    0.52891793597381    0.01684425798497
C          -0.31622728884497   -0.65883824243651   -0.04658035607683
C          -1.71925374866601   -0.51598705110729   -0.03013789040086
C          -2.76397564170678   -1.58164904376506   -0.06960029518857
C          -2.96451104301688   -2.22827340818998    1.30202009144138
C           0.48815517654738   -1.91328328527616   -0.09710188516356
C           1.10977637809430   -2.20516061896878    1.27116614782327
C           1.91601531538204   -3.46328897419671    1.34733808119214
C           2.15192349438364   -4.31448645685770    0.36664614682382
H          -2.83560899009286    1.40245617062027    0.08604808705734
H           0.31058064850076    3.05183664458377   -0.68647497916682
H           0.22209902635962    2.98130394948075    1.07715012822649
H          -2.13318643562119    3.61863222330345   -0.77929819813475
H          -1.22017379386097    4.78496014311097    0.17817071944345
H          -2.20489647218234    3.56894158265532    0.98989572747655
H          -2.47696824056479   -2.35081792781130   -0.79142996843019
H          -3.70715982666439   -1.14175364839125   -0.40294201077827
H          -2.05010260203172   -2.71730335952867    1.62930573733682
H          -3.75744682738745   -2.97229890234312    1.25982385241818
H          -3.23443207331492   -1.47466061879496    2.03940353414254
H           1.28719824061162   -1.79508145192021   -0.83124379802089
H          -0.15300487436397   -2.74284948723528   -0.39877402502870
H           0.31742672044499   -2.25805508100311    2.02611587557938
H           1.74884581326114   -1.36095290030354    1.54761038262077
H           2.33090931718333   -3.65630453227549    2.33011130567023
H           1.76645612689965   -4.17468096971093   -0.62830719475057
H           2.75010326929855   -5.19709638168400    0.51930513539538
