28
 SCF done        -39.310198928583          0.000215549139
C          -2.04525697445025   -1.14548520248822   -0.02585506804275
S          -2.10415342713261    0.58626393846340   -0.08377363502143
C          -0.37558209759628    0.65400412226295   -0.02606631490369
C           0.16801815724858   -0.62043792843261    0.03361027718400
C          -0.78919921260646   -1.66358863421962    0.03592867646727
C          -0.44625096595274   -3.11800695092486    0.06299527848266
C           0.10847244164649   -3.56971879955185   -1.28840689754056
S           1.89077254283728   -0.55197274523757    0.10071875566238
C           1.84973031195674    1.20637084409408    0.05311098274573
C           0.56794811452783    1.70132133843541   -0.02299462484989
C           0.17552177573651    3.14476730271158   -0.03602802909412
C           0.03605559997941    3.68004151192051    1.39030729151213
C           3.07358442627671    1.95695391192485    0.10021738027242
C           4.28742462565901    1.42898014250903    0.23353578307146
H          -2.97155065428600   -1.68565783277179   -0.03657260288213
H          -1.33747211357139   -3.69721982967523    0.31044252446162
H           0.30648855646935   -3.29041516067491    0.83618577907980
H          -0.62926849012695   -3.41185448094786   -2.07216724055815
H           0.36264705529241   -4.62631121443772   -1.25741049184223
H           1.00390980791785   -3.00479336295227   -1.53679938580910
H          -0.78334438441907    3.23824081566114   -0.55086712962568
H           0.91488708285415    3.73446141960536   -0.58065443469095
H          -0.71584183656735    3.11128594259925    1.93278788931740
H          -0.26465661550429    4.72482897251818    1.37402925717141
H           0.98154417400277    3.59587116196574    1.92194188426091
H           2.95666997599023    3.03012229391227    0.02620438511308
H           4.43246736797006    0.36448597739346    0.31732505720502
H           5.16989475584808    2.04288244633731    0.26497465285340
