17
 SCF done        -29.202305645010          0.000699157814
C           1.04275528211142    1.27880402653329    0.06547638681646
C          -0.28218307480936    0.76410885079134    0.06879224340143
C          -1.49896350260171    1.40145177284418    0.05098555245576
S          -2.79020732036815    0.28415330266943    0.07523684604997
C          -1.73095570984895   -1.05807055676083    0.10965595653453
C          -0.41463677266472   -0.66825910778030    0.10186840316527
C           0.80881882113439   -1.42157288195750    0.12454520059989
N           1.96674262881268   -0.81360904290961    0.11730846021307
N           2.08209188504268    0.50455083031340    0.09102923966805
C           0.79443435531824   -2.87615843152104    0.15568659731638
C           1.89793115208224   -3.60802286401571    0.26445722104349
H           1.23084009137738    2.34280456503272    0.04304556739710
H          -1.69577802644577    2.45420506425064    0.02690291639664
H          -2.14206786252545   -2.04688215337438    0.13425335806293
H          -0.17911929113062   -3.34167450765614    0.08758739803569
H           2.85958242457898   -3.12974067702291    0.33472546010258
H           1.86833491993671   -4.68374818943655    0.28401319274076
