# ORCA input file
# SCF done        -29.202305645010          0.000699157814
! B3LYP/G D3BJ Opt RIJCOSX def2-SVP def2/J
* xyz 0 1
   C        1.04276         1.27880         0.06548
   C       -0.28218         0.76411         0.06879
   C       -1.49896         1.40145         0.05099
   S       -2.79021         0.28415         0.07524
   C       -1.73096        -1.05807         0.10966
   C       -0.41464        -0.66826         0.10187
   C        0.80882        -1.42157         0.12455
   N        1.96674        -0.81361         0.11731
   N        2.08209         0.50455         0.09103
   C        0.79443        -2.87616         0.15569
   C        1.89793        -3.60802         0.26446
   H        1.23084         2.34280         0.04305
   H       -1.69578         2.45421         0.02690
   H       -2.14207        -2.04688         0.13425
   H       -0.17912        -3.34167         0.08759
   H        2.85958        -3.12974         0.33473
   H        1.86833        -4.68375         0.28401
*
