# ORCA input file
# SCF done        -33.743216697213          0.000651850916
! B3LYP/G D3BJ Opt RIJCOSX def2-SVP def2/J
* xyz 0 1
   C       -1.44772         1.17577        -0.14794
   S       -2.59174        -0.08223        -0.22386
   C       -1.39779        -1.32792        -0.07221
   C       -0.13184        -0.76393        -0.00250
   C       -0.16844         0.68603        -0.01711
   N        0.94960         1.43530         0.08502
   C        2.06865         0.78451         0.17438
   N        2.24252        -0.54179         0.06006
   C        1.18259        -1.30690        -0.05450
   C        1.43350        -2.67927        -0.33918
   N        1.67847        -3.76440        -0.61201
   C       -1.83420        -2.69800         0.02640
   C       -1.22792        -3.64027         0.74255
   H       -1.75189         2.20184        -0.17394
   H        2.97376         1.36181         0.30488
   H       -2.76258        -2.91829        -0.48524
   H       -0.34050        -3.44677         1.31900
   H       -1.61249        -4.64338         0.77968
*
