18
 SCF done        -33.743216697213          0.000651850916
C          -1.44771922412029    1.17576982628518   -0.14793559079524
S          -2.59173988131074   -0.08223281834305   -0.22386144345418
C          -1.39778622262122   -1.32791556473799   -0.07220641279230
C          -0.13183808226999   -0.76393353393042   -0.00250035186400
C          -0.16843595477280    0.68603073342554   -0.01711321726067
N           0.94959879104620    1.43529664409598    0.08501619640212
C           2.06864849316373    0.78451474971345    0.17437975404470
N           2.24251721748121   -0.54179194941207    0.06005938718731
C           1.18258767726724   -1.30689905805351   -0.05450177676099
C           1.43350095705509   -2.67927008734811   -0.33918082649536
N           1.67846694410025   -3.76439938093016   -0.61201273292192
C          -1.83419685431253   -2.69799837139320    0.02639714383148
C          -1.22791603522360   -3.64027140105144    0.74254651796795
H          -1.75188895061897    2.20183587614945   -0.17394316774025
H           2.97375627655326    1.36181349695383    0.30488000020730
H          -2.76257952781208   -2.91828949483161   -0.48523911957946
H          -0.34049927851863   -3.44676625092070    1.31900057722215
H          -1.61248634508525   -4.64338341567077    0.77967506280188
