# ORCA input file
# SCF done        -25.344515884632          0.000963676897
! B3LYP/G D3BJ Opt RIJCOSX def2-SVP def2/J
* xyz 0 1
   N        0.82386         1.19505         0.41907
   C        1.91682         0.23413         0.44007
   N        1.28684        -1.05807         0.27528
   C        0.13471        -0.82750        -0.58834
   C       -0.09595         0.73485        -0.59620
   N       -1.46773         0.92909        -0.16842
   C       -1.74811        -0.26407         0.61641
   N       -1.07671        -1.39145        -0.03123
   H        1.11781         2.15352         0.29423
   H        2.47144         0.30036         1.37801
   H        2.62000         0.37561        -0.40383
   H        0.93840        -1.40240         1.16397
   H        0.34936        -1.22842        -1.58467
   H        0.07235         1.18778        -1.58446
   H       -2.08010         0.98168        -0.97680
   H       -2.81552        -0.43918         0.73517
   H       -1.28686        -0.11570         1.59781
   H       -1.65862        -1.78976        -0.75975
*
