18
 SCF done        -25.344515884632          0.000963676897
N           0.82386049451159    1.19505225703911    0.41907213919538
C           1.91681503529876    0.23412697172547    0.44006829940879
N           1.28683751825229   -1.05806748065617    0.27527686805280
C           0.13471036984847   -0.82750336972294   -0.58833737517279
C          -0.09594774990353    0.73485467278029   -0.59619613721831
N          -1.46773133762066    0.92908765404722   -0.16841931475242
C          -1.74811383869451   -0.26406531531449    0.61640556383115
N          -1.07671028494383   -1.39145033968104   -0.03122586356642
H           1.11781085011448    2.15351607274532    0.29423305421977
H           2.47144122327530    0.30035948287554    1.37801442713244
H           2.62000155224072    0.37560838491848   -0.40383367983702
H           0.93839728542267   -1.40240106288225    1.16397188825951
H           0.34936027430286   -1.22841613038766   -1.58466959887501
H           0.07235272853443    1.18778056491355   -1.58445755940377
H          -2.08010464715833    0.98168163283426   -0.97680029527834
H          -2.81552379236335   -0.43918367423966    0.73517181509421
H          -1.28686127420092   -0.11569703751432    1.59780647759480
H          -1.65862440691643   -1.78976328348071   -0.75975070868475
