# ORCA input file
# SCF done        -21.137146767497          0.000269504263
! B3LYP/G D3BJ Opt RIJCOSX def2-SVP def2/J
* xyz 0 1
   C       -1.24072        -0.12110         0.00129
   S       -0.44542         1.40409        -0.00325
   C        1.09823         0.64867        -0.00389
   C        0.99425        -0.70588        -0.00112
   C       -0.36095        -1.15880         0.00199
   O       -0.73845        -2.45813         0.00519
   S        2.34488        -1.84979        -0.00103
   H       -2.30913        -0.17625         0.00306
   H        1.98752         1.24639        -0.00650
   H        0.04657        -3.02052         0.00503
   H        3.29669        -0.92498        -0.00798
*
