11
 SCF done        -21.137146767497          0.000269504263
C          -1.24071915687310   -0.12109700283196    0.00129481626513
S          -0.44541964488472    1.40409406543661   -0.00324570588570
C           1.09822597276500    0.64866567320911   -0.00389350882857
C           0.99424945928863   -0.70587734922121   -0.00111520664035
C          -0.36094742205311   -1.15880336340486    0.00199072359801
O          -0.73844653341525   -2.45812809443222    0.00518828620414
S           2.34488493134586   -1.84979288583690   -0.00103270053523
H          -2.30912861411078   -0.17625040185328    0.00306236666493
H           1.98751773066950    1.24638639749241   -0.00650267135525
H           0.04657459691282   -3.02052271992925    0.00502522846667
H           3.29668868035514   -0.92498431862844   -0.00798162795377
