# ORCA input file
# SCF done        -33.841691254390          0.000532407383
! B3LYP/G D3BJ Opt RIJCOSX def2-SVP def2/J
* xyz 0 1
   C        0.71883        -1.03860         0.00417
   C        1.15764         0.23331        -0.00002
   C        0.00253         1.12131        -0.00186
   C       -1.15534         0.21922         0.00146
   C       -0.74128        -1.05695         0.00493
   F       -2.42398         0.64753         0.00101
   C       -0.01269         2.47690        -0.00836
   C       -1.16782         3.36487        -0.01369
   C       -0.72904         4.63674        -0.02233
   C        0.73106         4.65513        -0.02348
   C        1.14514         3.37898        -0.01511
   F        2.41378         2.95068        -0.01293
   H        1.32009        -1.92879         0.00651
   H        2.17465         0.57130        -0.00166
   H       -1.34962        -1.94059         0.00788
   H       -2.18480         3.02680        -0.01083
   H       -1.33035         5.52689        -0.02788
   H        1.33939         5.53876        -0.02981
*
