18
 SCF done        -33.841691254390          0.000532407383
C           0.71882723282227   -1.03860333227901    0.00417342962625
C           1.15764283507653    0.23330722938454   -0.00002347481923
C           0.00252821809127    1.12131064035341   -0.00185503244648
C          -1.15533684256787    0.21922406032200    0.00146074840509
C          -0.74127937000465   -1.05694642452957    0.00493045440677
F          -2.42397758129105    0.64752874589235    0.00100828411218
C          -0.01269323791091    2.47690294744795   -0.00836331086489
C          -1.16781620032445    3.36487034644926   -0.01368739388163
C          -0.72903921686545    4.63674176169307   -0.02232593115693
C           0.73105836035114    4.65512554480632   -0.02348300033000
C           1.14513818473386    3.37898117003769   -0.01511382028360
F           2.41377965244413    2.95068356585204   -0.01293369599744
H           1.32008573611884   -1.92879307017769    0.00651299445373
H           2.17465491008345    0.57130209201745   -0.00165698975131
H          -1.34962305124785   -1.94058697154175    0.00787853595629
H          -2.18480177837358    3.02680017094042   -0.01083278020525
H          -1.33034875655523    5.52688561126975   -0.02788388141201
H           1.33939090541954    5.53875591206179   -0.02980513581154
