# ORCA input file
# SCF done        -49.591406978066          0.000837257905
! B3LYP/G D3BJ Opt RIJCOSX def2-SVP def2/J
* xyz 0 1
   C       -1.30804         1.30454         0.01443
   S       -2.45849         0.05252         0.04942
   C       -1.25740        -1.19035         0.03711
   C        0.01860        -0.62780         0.03780
   C       -0.02084         0.81570         0.01330
   C        1.18243         1.55599         0.02507
   C        2.37697         0.89768         0.06305
   N        3.57918         1.68744         0.24936
   O        3.64111         2.73875        -0.34104
   O        4.38405         1.26513         1.04552
   C        2.42030        -0.52565         0.08757
   N        3.67720        -1.23179        -0.03432
   O        4.52474        -0.71536        -0.72455
   O        3.75438        -2.31444         0.49692
   C        1.27167        -1.26901         0.09316
   C       -1.69962        -2.56069         0.01708
   C       -1.02889        -3.60389        -0.46580
   H       -1.62075         2.32902        -0.00822
   H        1.15904         2.63496         0.03739
   H        1.34878        -2.34332         0.13925
   H       -2.70300        -2.70835         0.39664
   H       -0.05938        -3.51694        -0.92193
   H       -1.45826        -4.58988        -0.44347
*
