# ORCA input file
# SCF done        -22.408944675415          0.000951731275
! B3LYP/G D3BJ Opt RIJCOSX def2-SVP def2/J
* xyz 0 1
   C       -1.23097        -0.12842         0.00102
   S       -0.44050         1.40086        -0.00109
   C        1.09800         0.66465        -0.00203
   C        1.01222        -0.70257        -0.00087
   C       -0.34734        -1.16361         0.00089
   O       -0.71995        -2.46205         0.00206
   C        2.09957        -1.58917        -0.00160
   N        2.93744        -2.37321        -0.00145
   H       -2.29926        -0.18822         0.00212
   H        1.98956         1.25933        -0.00361
   H        0.06059        -3.03154         0.00112
*
