11
 SCF done        -22.408944675415          0.000951731275
C          -1.23097006069005   -0.12841650151677    0.00101843050871
S          -0.44050306907302    1.40085545747701   -0.00109045986095
C           1.09800114675695    0.66465399014218   -0.00202778147246
C           1.01222416965671   -0.70256951254711   -0.00086817894307
C          -0.34734234333387   -1.16361006951334    0.00089471175882
O          -0.71995313128422   -2.46205321939309    0.00206043366021
C           2.09956934814263   -1.58916737041873   -0.00159766056780
N           2.93744408411831   -2.37320583546320   -0.00145127722918
H          -2.29925754330807   -0.18822276036620    0.00211969697112
H           1.98955797889496    1.25932667920990   -0.00361455550633
H           0.06058942011966   -3.03154085761064    0.00111664068094
