17
 SCF done        -33.004644428575          0.000253161782
C          -0.01411771997638    1.11142625088890    0.12503035519373
S          -1.11186428317167   -0.19777329200154   -0.08220598091920
C           0.14575082706372   -1.32665458950583   -0.11717137453094
C           1.37721486099139   -0.72932640028565    0.02488998120806
N           2.56462685270020   -1.48487231085370    0.02385207272358
O           2.47109214904179   -2.69029591914057   -0.10683476957627
O           3.63052146306827   -0.89370371433651    0.15465442958169
C           1.29705916168000    0.70428115793028    0.16829820876228
N           2.39806177945786    1.48279204726178    0.32081858818597
C           2.42584464807750    2.85094339216494    0.46512481763218
C           3.55258978802979    3.53769584514249    0.61055187582502
H          -0.40543975634125    2.10373057629349    0.20236550571620
H          -0.03788977357646   -2.37569667140535   -0.23780859447884
H           3.28701332583806    0.98806471774753    0.32751881217514
H           1.46238592223573    3.33740688465488    0.45236172453972
H           4.51219514751850    3.05083171457685    0.62258130106988
H           3.54209560736296    4.60489031086802    0.72065304689180
