# ORCA input file
# SCF done        -33.004644428575          0.000253161782
! B3LYP/G D3BJ Opt RIJCOSX def2-SVP def2/J
* xyz 0 1
   C       -0.01412         1.11143         0.12503
   S       -1.11186        -0.19777        -0.08221
   C        0.14575        -1.32665        -0.11717
   C        1.37721        -0.72933         0.02489
   N        2.56463        -1.48487         0.02385
   O        2.47109        -2.69030        -0.10683
   O        3.63052        -0.89370         0.15465
   C        1.29706         0.70428         0.16830
   N        2.39806         1.48279         0.32082
   C        2.42584         2.85094         0.46512
   C        3.55259         3.53770         0.61055
   H       -0.40544         2.10373         0.20237
   H       -0.03789        -2.37570        -0.23781
   H        3.28701         0.98806         0.32752
   H        1.46239         3.33741         0.45236
   H        4.51220         3.05083         0.62258
   H        3.54210         4.60489         0.72065
*
