21
 SCF done        -33.557298822097          0.000459418728
C          -0.45288772036806    1.17042545065738    0.29090444050587
S          -1.47678492127787   -0.14695242574378    0.68856430520723
C          -0.23041582135259   -1.30033394241032    0.31764685371799
C           0.92308720700939   -0.66472655679480   -0.09465097261003
C           0.78375448990381    0.76203598026730   -0.11200823755399
O           1.80839036042562    1.57542237518631   -0.50745421849203
C           1.55292342349828    2.95783090734973   -0.50760928331827
O           2.01575836305213   -1.39663711822411   -0.43610598861974
C           3.25712808978311   -0.74635542238706   -0.59797751202216
C          -0.52576241995653   -2.70052301988500    0.46882382549187
C           0.27602088904084   -3.70943071926815    0.13915088135739
H          -0.83514788639646    2.16680974285983    0.37211674620238
H           2.47073018878879    3.42851218875679   -0.85595063925361
H           1.31476982687433    3.31980738793424    0.49763455789512
H           0.73157327300904    3.21068700793250   -1.18558841533948
H           3.52227492725150   -0.16064152922554    0.28520880944025
H           3.25990651035161   -0.09490142039923   -1.47445532179330
H           3.98402134299461   -1.54638642582603   -0.73536604693866
H          -1.50425795157958   -2.89979039238476    0.88831434990275
H           1.24775891623478   -3.54373158380390   -0.28728396663809
H          -0.03007108728631   -4.73008048459165    0.29126583285827
