# ORCA input file
# SCF done        -46.610503248050          0.000485751984
! B3LYP/G D3BJ Opt RIJCOSX def2-SVP def2/J
* xyz 0 1
   C        1.40793        -1.21602         0.17204
   S        2.53974         0.05735         0.01101
   C        1.26299         1.23384        -0.14371
   C        0.03043         0.63117        -0.05189
   C        0.12114        -0.77335         0.12765
   C       -1.07029        -1.66958         0.29154
   C       -2.37180        -0.96824        -0.10824
   C       -2.54835        -1.00407        -1.62174
   F       -1.47587        -0.62360        -2.32467
   F       -2.83863        -2.25101        -2.03931
   F       -3.56593        -0.22843        -2.03486
   C       -2.41047         0.45744         0.44800
   C       -1.29120         1.32939        -0.11946
   C        1.65488         2.60907        -0.32354
   C        0.90844         3.60972        -0.78236
   H        1.75303        -2.22385         0.29090
   H       -1.14789        -1.96848         1.34115
   H       -0.93610        -2.58086        -0.29679
   H       -3.22542        -1.53245         0.28511
   H       -2.30548         0.38909         1.53253
   H       -3.37674         0.91513         0.22903
   H       -1.24328         2.26524         0.44187
   H       -1.51321         1.58153        -1.16061
   H        2.68938         2.80362        -0.06738
   H       -0.10909         3.48660        -1.10312
   H        1.31949         4.60031        -0.87344
*
