26
 SCF done        -46.610503248050          0.000485751984
C           1.40793037618509   -1.21601972876270    0.17203701918814
S           2.53974407270967    0.05735068500825    0.01100919233964
C           1.26299260077576    1.23384029835847   -0.14370503095983
C           0.03042579313710    0.63117489328075   -0.05188568634684
C           0.12113754795402   -0.77335195089899    0.12764634148347
C          -1.07028501808945   -1.66957644054146    0.29154468946916
C          -2.37180312125449   -0.96823620792127   -0.10824081609086
C          -2.54834977640536   -1.00406928616176   -1.62174258321135
F          -1.47587060954463   -0.62359689588463   -2.32467139676405
F          -2.83862527561126   -2.25100809404371   -2.03931418801061
F          -3.56593488620712   -0.22842850338488   -2.03486110449502
C          -2.41046618604597    0.45744306045238    0.44800182499525
C          -1.29119540883459    1.32938931099084   -0.11945961816636
C           1.65487591003115    2.60906775030356   -0.32354342757576
C           0.90843885158895    3.60972413689135   -0.78236334732247
H           1.75303010622401   -2.22385096328907    0.29090221638075
H          -1.14788988877652   -1.96848482587899    1.34114753178498
H          -0.93609768072647   -2.58086234585850   -0.29679336015639
H          -3.22541726891739   -1.53245207820641    0.28510687436468
H          -2.30547527762272    0.38908933429627    1.53252574108478
H          -3.37674053252952    0.91512803514679    0.22903362339112
H          -1.24328257014353    2.26523636167487    0.44187051310977
H          -1.51320936629869    1.58153025174733   -1.16060940967919
H           2.68938457081479    2.80362401661154   -0.06737957533644
H          -0.10909014577746    3.48659510351371   -1.10311838643553
H           1.31949318336463    4.60031408255625   -0.87343763704109
