# ORCA input file
# SCF done        -52.789262873911          0.000652782671
! B3LYP/G D3BJ Opt RIJCOSX def2-SVP def2/J
* xyz 0 1
   C        1.25399        -1.32771        -0.16811
   S        2.53328        -0.19353        -0.18439
   C        1.42550         1.12182         0.09861
   C        0.13096         0.66847         0.18700
   C        0.03988        -0.73930         0.03469
   C       -1.27834        -1.48055         0.09238
   C       -1.58998        -1.83190        -1.33742
   O       -2.31612        -1.24384        -2.08599
   C       -0.83266        -3.07873        -1.90037
   F       -0.37637        -3.90960        -0.94923
   F       -1.63682        -3.79940        -2.68523
   F        0.22575        -2.71503        -2.63773
   C       -2.37230        -0.61003         0.71898
   C       -2.36067         0.80663         0.15272
   C       -1.05826         1.52118         0.50065
   C        1.89417         2.47669         0.22208
   C        3.16834         2.84819         0.14065
   H        1.48100        -2.36746        -0.29249
   H       -1.14942        -2.40330         0.66691
   H       -2.20719        -0.57348         1.79797
   H       -3.34280        -1.07420         0.53607
   H       -3.20159         1.36681         0.56438
   H       -2.48263         0.76594        -0.92900
   H       -1.04333         1.75467         1.57122
   H       -0.99933         2.46642        -0.04186
   H        1.12297         3.21589         0.39438
   H        3.95444         2.13045        -0.02686
   H        3.46341         3.87762         0.23827
*
