28
 SCF done        -52.789262873911          0.000652782671
C           1.25398568456525   -1.32770565562718   -0.16810952178208
S           2.53328430092656   -0.19353173622533   -0.18439010977981
C           1.42550325013890    1.12182354151305    0.09861453126616
C           0.13095932782717    0.66847206232683    0.18700251289592
C           0.03987998310115   -0.73930302288374    0.03468623867691
C          -1.27833767686193   -1.48054674909550    0.09238357306007
C          -1.58998149360862   -1.83189856777084   -1.33742454428763
O          -2.31612360008085   -1.24384090161073   -2.08598666057413
C          -0.83266380680386   -3.07873402854771   -1.90037238403458
F          -0.37637112266879   -3.90959960579866   -0.94923242363290
F          -1.63681919123061   -3.79940190248951   -2.68522855010357
F           0.22575184452603   -2.71502657648313   -2.63773003171049
C          -2.37229590572808   -0.61002801282620    0.71898403849988
C          -2.36067188778298    0.80663297499455    0.15272123347537
C          -1.05825770537229    1.52117808871428    0.50065087802210
C           1.89417201149977    2.47669056628036    0.22207845957527
C           3.16834457398805    2.84818854511923    0.14065393575348
H           1.48100467255801   -2.36745677574558   -0.29248628458422
H          -1.14942173799386   -2.40329536779408    0.66690674747956
H          -2.20719131131642   -0.57348347669322    1.79797201749268
H          -3.34279554450137   -1.07419967541108    0.53606620027008
H          -3.20158830933750    1.36681207644683    0.56438191639219
H          -2.48262955433004    0.76593639391071   -0.92899898080451
H          -1.04333006502943    1.75467350296107    1.57121978403915
H          -0.99933145032178    2.46642180414422   -0.04186136589362
H           1.12297139970508    3.21588773553359    0.39438172699435
H           3.95443996320006    2.13045246670438   -0.02685620048807
H           3.46341335093227    3.87762229635368    0.23827326378234
