20
 SCF done        -35.158421650217          0.000640291726
C          -1.62872585078115   -1.27028840557679    0.05578194334927
S          -2.76028702273163   -0.00533450666094    0.20330462070683
C          -1.53318063574928    1.18574648879490    0.25453688068893
C          -0.27827266223438    0.63435686256100    0.16127537517676
C          -0.33392516352462   -0.80043280337894    0.04496763922695
C           0.86874648976466   -1.53096665125547   -0.06224578480991
C           2.06293545613020   -0.86205704911997   -0.05092541288822
C           3.27352443767821   -1.58213383359504   -0.15866187348726
N           4.23943791251922   -2.19305630381572   -0.24827021650121
C           2.12359430509026    0.57352658190716    0.06868531214244
O           3.38334442265225    1.07511710567453    0.06747229852551
C           3.55224039365127    2.46631284734743    0.18499402033182
C           0.97334516577944    1.30047545819073    0.17034350939499
H          -1.96238862393418   -2.28599618517555   -0.01467232456217
H          -1.79809028887520    2.21937094778413    0.34970654798370
H           0.84365133834661   -2.60661806635548   -0.15199481509477
H           4.62738233723241    2.63332445265828    0.17303360363803
H           3.13649465607498    2.84121331012450    1.12521245341427
H           3.09192749595177    2.99714369506952   -0.65424961474621
H           0.98138583695892    2.37464605482132    0.25864583751016
