# ORCA input file
# SCF done        -35.158421650217          0.000640291726
! B3LYP/G D3BJ Opt RIJCOSX def2-SVP def2/J
* xyz 0 1
   C       -1.62873        -1.27029         0.05578
   S       -2.76029        -0.00533         0.20330
   C       -1.53318         1.18575         0.25454
   C       -0.27827         0.63436         0.16128
   C       -0.33393        -0.80043         0.04497
   C        0.86875        -1.53097        -0.06225
   C        2.06294        -0.86206        -0.05093
   C        3.27352        -1.58213        -0.15866
   N        4.23944        -2.19306        -0.24827
   C        2.12359         0.57353         0.06869
   O        3.38334         1.07512         0.06747
   C        3.55224         2.46631         0.18499
   C        0.97335         1.30048         0.17034
   H       -1.96239        -2.28600        -0.01467
   H       -1.79809         2.21937         0.34971
   H        0.84365        -2.60662        -0.15199
   H        4.62738         2.63332         0.17303
   H        3.13649         2.84121         1.12521
   H        3.09193         2.99714        -0.65425
   H        0.98139         2.37465         0.25865
*
