15
 SCF done        -27.242839109849          0.000877772770
C          -1.02024112820252    0.04256429839733    0.14905802731224
O          -0.07039498622285    0.99742081318675    0.12850846468754
C           1.12976095817408    0.40391421593420   -0.06752573193797
C           0.94171807000826   -0.96234414038425   -0.14547837638317
C          -0.45693794317224   -1.19085581072503   -0.01298990383133
O          -1.09518497841062   -2.37947790946910   -0.03435368830212
S           2.11117584714692   -2.26859497657839   -0.33210304653111
C           2.28453450442462    1.26124211172896   -0.12574165587321
C           3.50515212498841    0.92890976665689   -0.53894700112637
H          -2.03714188904870    0.34544850218854    0.28431489835682
H          -0.43845764049395   -3.08266868205730   -0.12748015269297
H           3.06439737381387   -1.70565656426025    0.40734667125595
H           2.07340456365056    2.27594732699913    0.18593885696685
H           3.75096483559148   -0.04951438713582   -0.91046736496962
H           4.29984028775274    1.65370543551838   -0.54608999693161
