22
 SCF done        -34.062966545127          0.000550265830
C          -1.77651241030330   -1.27076302121251    0.49761671559421
S          -2.87792952034356    0.01468154839657    0.77178334507546
C          -1.80199236205819    1.16849564208205    0.02903866452287
C          -0.66012883057540    0.54471529361932   -0.41086829971149
C          -0.64925110723024   -0.85364613019716   -0.14314850985355
S           0.58389727654516   -2.01878734319236   -0.61946573170511
C           2.17803162063018   -1.15906624096315   -0.28005295329713
C           2.07962303828450   -0.05599233952289    0.76318778570679
C           1.90860945763629    1.31914211594761    0.13010851141139
S           0.68433625661218    1.34486614557304   -1.23070493029696
C          -2.23705362028189    2.54244041104380   -0.00504589196282
C          -1.68797114507547    3.54202794254313   -0.68940840719359
H          -2.02335828107625   -2.26986209886731    0.79433165484566
H           2.55113809674878   -0.77108100869810   -1.22825738288503
H           2.82915909937255   -1.96586091670328    0.05499131678087
H           2.99283446145088   -0.04014336351047    1.36393332373587
H           1.24785526580761   -0.25962614441982    1.44266180550513
H           2.83343715172068    1.64826543249092   -0.34357728291404
H           1.60133401063550    2.05836554884323    0.87059739237380
H          -3.11824544043360    2.72883315425764    0.59727921103722
H          -0.82996596184518    3.40878398565958   -1.32291204658964
H          -2.09866705622107    4.53512138683011   -0.63055829017977
