18
 SCF done        -26.539730527271          0.000597050480
C           1.32280405600561   -1.25114698653979    0.28329203072060
S           2.52262091776193   -0.01309520114887    0.17914932807002
C           1.32864885894045    1.21523622537896   -0.10137491852141
C           0.08849164606450    0.68566129718806   -0.11164047916881
C           0.07834148036661   -0.73165724568243    0.10953283670584
C          -1.28621166329330   -1.17774994597149    0.07552628405079
C          -2.10584013776265   -0.12385685722233   -0.15500059116218
C          -1.31528931547510    1.16123544882969   -0.29406404199103
C          -3.53879484778736   -0.18796804521197   -0.26162687485569
C          -4.33599286993256    0.84841131038773   -0.51517762971445
H           1.62674746161011   -2.26257821369300    0.46274490096564
H           1.64908171840480    2.22892690435791   -0.23594074674643
H          -1.59470917321147   -2.19906257070119    0.21205341282902
H          -1.60386128031479    1.88966143498143    0.46670537202282
H          -1.46838168980331    1.62005915465978   -1.27302213223046
H          -3.96779547896218   -1.17248715108409   -0.12153912431887
H          -3.95269147153925    1.84389710845752   -0.66240276205209
H          -5.40377821107203    0.73440333301408   -0.58493486460329
