16
 SCF done        -27.015303368007          0.000968161377
C          -2.17176436433845    0.31338797265231   -0.38022130746305
N          -1.50737604728832   -0.83102071506383   -0.59783012180462
C          -0.23475393725256   -0.66566836522319   -0.46242185473195
C           0.85360197548402   -1.34003690118726    0.02116629149767
C          -1.46453702745920    1.41102789087638    0.02429299884563
S           0.23577469265314    1.17136580824668   -0.40183225939842
N           1.46977463825841    0.84114393438654    0.64597086222294
C           1.77985189699621   -0.45069138086805    0.60781572793994
C           3.03697804890405   -0.82906885401766    1.22711139325412
C           3.52138608947424   -2.06391513980310    1.28584635675120
H          -3.24801933540127    0.29984319726258   -0.45356504244617
H           0.92803770390230   -2.40829538023536    0.05683237122477
H          -1.84044986228832    2.41075426562261    0.10874023046617
H           3.57915278074763    0.00099661175215    1.65860131414827
H           3.00179407752162   -2.91010363399015    0.86998625275461
H           4.46084867008693   -2.27211931041062    1.76811678673882
