# ORCA input file
# SCF done        -27.015303368007          0.000968161377
! B3LYP/G D3BJ Opt RIJCOSX def2-SVP def2/J
* xyz 0 1
   C       -2.17176         0.31339        -0.38022
   N       -1.50738        -0.83102        -0.59783
   C       -0.23475        -0.66567        -0.46242
   C        0.85360        -1.34004         0.02117
   C       -1.46454         1.41103         0.02429
   S        0.23577         1.17137        -0.40183
   N        1.46977         0.84114         0.64597
   C        1.77985        -0.45069         0.60782
   C        3.03698        -0.82907         1.22711
   C        3.52139        -2.06392         1.28585
   H       -3.24802         0.29984        -0.45357
   H        0.92804        -2.40830         0.05683
   H       -1.84045         2.41075         0.10874
   H        3.57915         0.00100         1.65860
   H        3.00179        -2.91010         0.86999
   H        4.46085        -2.27212         1.76812
*
