# ORCA input file
# SCF done        -33.809335749006          0.000503371171
! B3LYP/G D3BJ Opt RIJCOSX def2-SVP def2/J
* xyz 0 1
   C       -1.66328        -1.22823         0.10281
   S       -2.77845         0.05593         0.26852
   C       -1.53077         1.22642         0.29837
   C       -0.28788         0.65258         0.18460
   C       -0.36553        -0.77853         0.07094
   C        0.83265        -1.52590        -0.05304
   C        2.03782        -0.89909        -0.06403
   C        3.32445        -1.65077        -0.19229
   C        2.10610         0.53424         0.04932
   O        3.37783         1.02903         0.02370
   C        3.55577         2.41704         0.13712
   C        0.97780         1.29070         0.17036
   H       -2.01809        -2.23723         0.03879
   H       -1.77838         2.26413         0.39669
   H        0.77143        -2.60089        -0.13739
   H        3.14285        -2.72089        -0.24598
   H        3.96857        -1.43747         0.65928
   H        3.85597        -1.33188        -1.08783
   H        4.63177         2.58215         0.09956
   H        3.16383         2.79628         1.08697
   H        3.07819         2.95317        -0.68994
   H        1.00883         2.36512         0.25604
*
