22
 SCF done        -33.809335749006          0.000503371171
C          -1.66327862177797   -1.22823460900159    0.10280687639725
S          -2.77845230610114    0.05593054781817    0.26851934603424
C          -1.53076738697864    1.22642286796942    0.29836885682178
C          -0.28787920349905    0.65257903881411    0.18459754173057
C          -0.36553269017785   -0.77853152301267    0.07093603851129
C           0.83265084159155   -1.52589674734517   -0.05304180099031
C           2.03782438873326   -0.89908771836584   -0.06402961980769
C           3.32444746111426   -1.65076753938489   -0.19228763443066
C           2.10609691525427    0.53424479853049    0.04931901521717
O           3.37783003290955    1.02903267125700    0.02370054924420
C           3.55576948138473    2.41704140755665    0.13711644035022
C           0.97779859980794    1.29070073097795    0.17036355537159
H          -2.01809021189255   -2.23722768181269    0.03879193274327
H          -1.77838109432592    2.26412905454828    0.39669393763733
H           0.77142682150303   -2.60088612188963   -0.13738640783385
H           3.14285006414646   -2.72089273104437   -0.24598042130035
H           3.96856710450383   -1.43746961520103    0.65927757378747
H           3.85596794504287   -1.33187586613609   -1.08782835259861
H           4.63177413380228    2.58214780516467    0.09955559488089
H           3.16383049193412    2.79628094418401    1.08696742429912
H           3.07819418233360    2.95316896908180   -0.68993584711455
H           1.00883305069143    2.36512131729137    0.25603540104977
