19
 SCF done        -33.927058418149          0.000847656580
C           1.60475612850354    1.23485300836742    0.06783710648598
S           2.80409647240036    0.01024494251687   -0.03790791842146
C           1.59600548193090   -1.20836861057285   -0.10843578423469
C           0.33895163263464   -0.69329922077310   -0.05278420040637
C           0.34434938418181    0.72564147318945    0.05092588840869
C          -0.91548875886828    1.52222458729610    0.16817987042708
C          -2.11898877825712    0.72049142352851   -0.32038843471323
F          -3.26515249931140    1.40009314304204    0.03179661483506
C          -2.13285349409249   -0.67139741452534    0.31698880255477
F          -3.27535499805819   -1.34204194855580   -0.06525711542133
C          -0.92526194234759   -1.48808351074022   -0.13759234164645
H           1.90126604608156    2.26184320486183    0.14081359268044
H           1.88536227999766   -2.23661736097979   -0.19162123394290
H          -0.84036442202755    2.45530322904973   -0.39301504064109
H          -1.09103753674542    1.78413535997867    1.21717013336220
H          -2.13989297973396    0.63010405292225   -1.41382307347253
H          -2.18442819930820   -0.57864218406320    1.40925336179615
H          -1.09995843779875   -1.79033779639477   -1.17588128785788
H          -0.85136537918152   -2.39977637814779    0.45827106020757
