# ORCA input file
# SCF done        -32.640048353635          0.000916303543
! B3LYP/G D3BJ Opt RIJCOSX def2-SVP def2/J
* xyz 0 1
   C       -1.15974        -0.19280        -0.43129
   O       -0.85378        -1.36129        -1.04879
   C        0.16918        -1.87066        -0.37283
   C        0.54163        -1.05174         0.68335
   C       -0.33866         0.05082         0.63682
   C        1.68403        -1.66524         1.40824
   O        2.28433        -1.25896         2.36991
   C        1.91868        -2.93100         0.64382
   C        1.01277        -3.03187        -0.40535
   S        1.22930        -4.45893        -1.31477
   C        2.54006        -4.92558        -0.28661
   C        2.79606        -4.02612         0.70613
   H       -1.97453         0.36940        -0.84134
   H       -0.36897         0.89827         1.28950
   H        3.04275        -5.85069        -0.48662
   H        3.57043        -4.14546         1.44098
*
