16
 SCF done        -32.640048353635          0.000916303543
C          -1.15974196784615   -0.19279908017649   -0.43129119716468
O          -0.85377648524728   -1.36128918669775   -1.04878679411676
C           0.16917962177611   -1.87066143963233   -0.37282613487224
C           0.54162511926152   -1.05174193963394    0.68335349803235
C          -0.33866164159039    0.05081812826783    0.63682459625165
C           1.68402971293004   -1.66523590995287    1.40824278191073
O           2.28433188908809   -1.25895876408051    2.36990714573396
C           1.91868433916941   -2.93100469617863    0.64381977456886
C           1.01276857380341   -3.03186525265141   -0.40534584047694
S           1.22929763167281   -4.45892976935392   -1.31477248937515
C           2.54005956555230   -4.92557862687200   -0.28660948398208
C           2.79605609748387   -4.02612040765348    0.70613492265993
H          -1.97453302518843    0.36939814752859   -0.84133621516905
H          -0.36897296275442    0.89826884595028    1.28950079796941
H           3.04274747728131   -5.85069239039174   -0.48662420550848
H           3.57042605460781   -4.14545765847164    1.44097884353848
