13
 SCF done        -20.684385501961          0.000947438307
N           1.02857006377451    0.00823365095699   -0.11019897363732
C           2.41658746380542    0.09901156694392   -0.00640398819299
C           3.14884844276717    1.24344721084320   -0.02882385447642
S           4.84536973010803    0.93867561078841    0.03784960019298
C           4.56724228208090   -0.76277598704747    0.09443223340335
C           3.24443012843689   -1.07188458837712    0.06058640058516
N           2.69583004338178   -2.35106906299934    0.15409348581312
H           0.56275266813732    0.89172690208315    0.04230329425145
H           0.64031542572428   -0.72202523897128    0.47178461261310
H           2.79544856689392    2.25301892290215   -0.08694347244511
H           5.40106867835064   -1.43260925788629    0.15596474727702
H           3.37487717249071   -3.08340571677227    0.00318056914096
H           1.88208933404848   -2.47013401246408   -0.43361465452531
