# ORCA input file
# SCF done        -20.684385501961          0.000947438307
! B3LYP/G D3BJ Opt RIJCOSX def2-SVP def2/J
* xyz 0 1
   N        1.02857         0.00823        -0.11020
   C        2.41659         0.09901        -0.00640
   C        3.14885         1.24345        -0.02882
   S        4.84537         0.93868         0.03785
   C        4.56724        -0.76278         0.09443
   C        3.24443        -1.07188         0.06059
   N        2.69583        -2.35107         0.15409
   H        0.56275         0.89173         0.04230
   H        0.64032        -0.72203         0.47178
   H        2.79545         2.25302        -0.08694
   H        5.40107        -1.43261         0.15596
   H        3.37488        -3.08341         0.00318
   H        1.88209        -2.47013        -0.43361
*
