23
 SCF done        -49.057070353827          0.000911241276
C          -1.44439351894050    1.34357994149994    0.12440632953008
S          -2.62464171284297    0.11607275115690    0.14812913747875
C          -1.44693432464124   -1.14758819782113    0.08466753278662
C          -0.16037639564420   -0.60743902955832    0.04626279868268
C          -0.16774673149789    0.83224054881454    0.06911215594841
C           1.05296168871298    1.54664058319265    0.03374227683989
C           2.22656331009402    0.85813535407479   -0.02344620392970
C           3.54313529018863    1.58121604663907   -0.06392486097832
F           3.39765702308001    2.91531900211484   -0.04150276302118
F           4.32970007728515    1.27287083560895    0.98108755461608
F           4.24835321693029    1.30030112564907   -1.17278730410365
C           2.24363228779392   -0.57227111913888   -0.04696723366557
C           3.47216066844712   -1.27059036405185   -0.10847923851757
N           4.44892324967208   -1.86780546380732   -0.15105367311452
C           1.07051583873813   -1.28669677409664   -0.01202355742711
C          -1.81549416260840   -2.53245452607142    0.07483611868001
C          -3.06780164631278   -2.98719704039942    0.09844570894238
H          -1.73957532007506    2.37322721374949    0.15135335855290
H           1.03979218122240    2.62524399932952    0.05154531039373
H           1.10382405731772   -2.36507003183996   -0.03054879643081
H          -0.98927852024139   -3.22927281992209    0.04558658037763
H          -3.91145627028153   -2.31791533917036    0.12778062035732
H          -3.28408028639690   -4.03998669595253    0.09044814800197
