16
 SCF done        -26.629360056625          0.000914542407
C          -1.32035826459047   -1.34238436103997    0.13189217596719
S          -2.50389757714548   -0.09852107659036    0.07922880075383
C          -1.30996829782726    1.16730917003841   -0.06439892436845
C          -0.04078445519529    0.61840561557699   -0.06342236786911
C          -0.07336176017319   -0.80900608693818    0.04856100744763
S           1.52241964578203   -1.50298405077257    0.05503464661834
C           2.20724557154919    0.09363511195636   -0.08155804532858
C           1.30372685402682    1.09241117751960   -0.13290975929074
C          -1.78231729453231    2.51954076014027   -0.15327958433503
C          -1.04438116554528    3.61031886997820   -0.35277973505249
H          -1.61518565927943   -2.36769538450267    0.21967633185658
H           3.27653480036917    0.17823511595052   -0.11643140771738
H           1.58089407735782    2.12683481315890   -0.21278776311244
H          -2.85611374689433    2.61796197597227   -0.04792062374190
H           0.02105670216509    3.57385542945758   -0.48114019114131
H          -1.49974943006707    4.58367292009464   -0.40136456068594
