# ORCA input file
# SCF done        -26.629360056625          0.000914542407
! B3LYP/G D3BJ Opt RIJCOSX def2-SVP def2/J
* xyz 0 1
   C       -1.32036        -1.34238         0.13189
   S       -2.50390        -0.09852         0.07923
   C       -1.30997         1.16731        -0.06440
   C       -0.04078         0.61841        -0.06342
   C       -0.07336        -0.80901         0.04856
   S        1.52242        -1.50298         0.05503
   C        2.20725         0.09364        -0.08156
   C        1.30373         1.09241        -0.13291
   C       -1.78232         2.51954        -0.15328
   C       -1.04438         3.61032        -0.35278
   H       -1.61519        -2.36770         0.21968
   H        3.27653         0.17824        -0.11643
   H        1.58089         2.12683        -0.21279
   H       -2.85611         2.61796        -0.04792
   H        0.02106         3.57386        -0.48114
   H       -1.49975         4.58367        -0.40136
*
