# ORCA input file
# SCF done        -39.164505607133          0.000949344846
! B3LYP/G D3BJ Opt RIJCOSX def2-SVP def2/J
* xyz 0 1
   C       -1.64115        -1.57159         0.21359
   S       -2.77056        -0.28150         0.08718
   C       -1.52820         0.92844        -0.06359
   C       -0.27850         0.32997        -0.00657
   C       -0.37119        -1.09336         0.14908
   S        1.19002        -1.85180         0.22379
   C        1.96256        -0.27756         0.06284
   C        3.42157        -0.12859         0.05268
   O        3.93518         0.96476        -0.04610
   C        4.20754        -1.41456         0.17039
   C        5.70946        -1.17147         0.15909
   C        1.07345         0.75071        -0.04558
   C       -1.93623         2.29549        -0.21629
   C       -1.14317         3.33606        -0.46927
   H       -1.98134        -2.58040         0.32517
   H        3.91579        -2.06644        -0.65790
   H        3.90432        -1.91395         1.09484
   H        6.00334        -0.68416        -0.76712
   H        6.24832        -2.11105         0.25074
   H        5.98965        -0.52120         0.98396
   H        1.40953         1.76637        -0.13967
   H       -3.00335         2.45073        -0.11761
   H       -0.08108         3.23886        -0.59829
   H       -1.55010         4.32711        -0.56709
*
