24
 SCF done        -39.164505607133          0.000949344846
C          -1.64115126348075   -1.57159254795501    0.21358864692048
S          -2.77055833963748   -0.28149626321774    0.08717823040216
C          -1.52819704708372    0.92844402307196   -0.06358893210534
C          -0.27849691519037    0.32996894121146   -0.00656663809011
C          -0.37119188134608   -1.09336490904290    0.14907961826893
S           1.19001848086416   -1.85180009598474    0.22378563033660
C           1.96255988472148   -0.27756248649632    0.06283822219289
C           3.42157439146444   -0.12859407485249    0.05267549548913
O           3.93518325034666    0.96476346714546   -0.04610172655763
C           4.20754440204774   -1.41456424106110    0.17039084683547
C           5.70946305165046   -1.17147366923866    0.15908904920789
C           1.07344812569954    0.75070820837792   -0.04558380152519
C          -1.93623282264606    2.29549082326289   -0.21629143166410
C          -1.14316796137019    3.33606461780684   -0.46926816693109
H          -1.98133710487696   -2.58039565979639    0.32517221848755
H           3.91578856527535   -2.06644290444241   -0.65790203275883
H           3.90431598045923   -1.91394683924691    1.09483529171464
H           6.00333890024024   -0.68415882797300   -0.76711594535936
H           6.24832449375899   -2.11105306013957    0.25073939721838
H           5.98964729883371   -0.52120299453985    0.98395784859655
H           1.40952875861778    1.76637376433924   -0.13967279219671
H          -3.00335195523646    2.45072924439843   -0.11761392762357
H          -0.08107889076751    3.23885534007059   -0.59828668613316
H          -1.55010140234433    4.32711014430216   -0.56708841472559
