# ORCA input file
# SCF done        -19.578079588078          0.000352426727
! B3LYP/G D3BJ Opt RIJCOSX def2-SVP def2/J
* xyz 0 1
   C        0.96102        -0.72688         0.18600
   N        0.95644         0.63133         0.05821
   C       -0.33549         1.00231        -0.13093
   N       -1.13600        -0.01858        -0.13096
   C       -0.35169        -1.12446         0.06622
   C       -0.94113        -2.44272         0.11941
   C       -0.27647        -3.57239         0.32891
   H        1.86313        -1.27974         0.34400
   H        1.76235         1.23372         0.09775
   H       -0.63791         2.02208        -0.26206
   H       -2.01203        -2.44905        -0.02758
   H        0.78970        -3.58974         0.47987
   H       -0.77832        -4.52378         0.35703
*
