# ORCA input file
# SCF done        -39.892948500516          0.000474196021
! B3LYP/G D3BJ Opt RIJCOSX def2-SVP def2/J
* xyz 0 1
   C        0.00362         1.19642        -0.99536
   S       -1.07773        -0.13667        -0.91728
   C        0.14229        -1.14207        -0.19711
   C        1.32582        -0.45273        -0.03916
   C        1.24163         0.89860        -0.50843
   O        2.31562         1.73677        -0.45681
   C        2.13790         3.04323        -0.96703
   C        3.46838         3.76956        -0.85618
   O        2.39496        -1.09432         0.49563
   C        3.52307        -0.34252         0.91060
   C        4.45534        -1.29600         1.64115
   C       -0.09283        -2.51121         0.16577
   C       -1.24018        -3.16000        -0.00973
   H       -0.34848         2.11949        -1.40798
   H        1.36327         3.56655        -0.38885
   H        1.81374         2.99289        -2.01572
   H        3.79397         3.79302         0.18037
   H        3.36400         4.78706        -1.22110
   H        4.22333         3.25560        -1.44510
   H        3.20915         0.47116         1.57537
   H        4.02628         0.09512         0.04103
   H        3.94983        -1.72578         2.50187
   H        5.33983        -0.76195         1.97603
   H        4.75459        -2.10301         0.97783
   H        0.76456        -2.99875         0.60936
   H       -2.09324        -2.67647        -0.45660
   H       -1.35949        -4.18755         0.28344
*
