# ORCA input file
# SCF done        -33.205523639815          0.000518595915
! B3LYP/G D3BJ Opt RIJCOSX def2-SVP def2/J
* xyz 0 1
   C       -1.54402         1.25980        -0.04894
   S       -2.69294         0.00666        -0.08637
   C       -1.48241        -1.23177        -0.01741
   C       -0.21105        -0.66693        -0.00212
   C       -0.25436         0.77313        -0.00843
   C        0.94262         1.51969         0.02082
   C        2.14112         0.85327         0.02600
   C        3.35593         1.57352         0.06227
   N        4.34685         2.15010         0.09315
   C        2.19078        -0.57013        -0.02595
   C        1.05047        -1.30952        -0.04274
   C       -1.92193        -2.60130         0.03229
   C       -1.26103        -3.62477         0.56848
   H       -1.86096         2.28349        -0.05380
   H        0.90330         2.59885         0.03218
   H        3.15880        -1.04724        -0.05976
   H        1.09988        -2.38377        -0.11411
   H       -2.91220        -2.76742        -0.37450
   H       -0.30454        -3.51188         1.04746
   H       -1.68130        -4.61514         0.56529
*
