20
 SCF done        -33.205523639815          0.000518595915
C          -1.54401734193452    1.25979809897940   -0.04893501040057
S          -2.69294409470797    0.00666213701527   -0.08637330824775
C          -1.48240628823561   -1.23176960647238   -0.01741349884644
C          -0.21105051125937   -0.66693031896936   -0.00212303242460
C          -0.25435719531206    0.77313085195971   -0.00842763928289
C           0.94261989465143    1.51969432455966    0.02082211357138
C           2.14111984675787    0.85327100162978    0.02600401696523
C           3.35592629430768    1.57352381771040    0.06227122750043
N           4.34685099369187    2.15009852452168    0.09315267392080
C           2.19077636733235   -0.57012775651374   -0.02595198702878
C           1.05047216905004   -1.30951525051184   -0.04273901965513
C          -1.92192646714796   -2.60130124280405    0.03228747655888
C          -1.26103372458693   -3.62476779273944    0.56848221393437
H          -1.86096285856748    2.28349117629549   -0.05379995791716
H           0.90330460166635    2.59884805972705    0.03218057995539
H           3.15880288444885   -1.04723953856582   -0.05975841034111
H           1.09987524765726   -2.38376693827655   -0.11410683571713
H          -2.91219777248792   -2.76742264777348   -0.37450451061794
H          -0.30453865683176   -3.51188111763772    1.04746247877977
H          -1.68130338849211   -4.61513578213403    0.56529042929328
