# ORCA input file
# SCF done        -31.637106402030          0.000451142378
! B3LYP/G D3BJ Opt RIJCOSX def2-SVP def2/J
* xyz 0 1
   C       -1.96641        -1.12404         0.00633
   S       -2.00391         0.59545         0.18951
   C       -0.27637         0.64958         0.12063
   C        0.68592         1.66457         0.18523
   C        1.95583         1.14944         0.07523
   C        3.26395         1.81319         0.08289
   O        4.29508         1.20672        -0.02983
   O        3.25594         3.15299         0.22235
   S        1.98229        -0.58454        -0.10828
   C        0.26217        -0.62837        -0.03767
   C       -0.71624        -1.64190        -0.10253
   H       -2.89800        -1.65449        -0.00974
   H        0.43794         2.70521         0.30496
   H        2.36614         3.51550         0.31061
   H       -0.50129        -2.68700        -0.22248
*
