15
 SCF done        -31.637106402030          0.000451142378
C          -1.96641481304161   -1.12404314039795    0.00633414675102
S          -2.00390698113471    0.59544935770403    0.18950623974350
C          -0.27637027609060    0.64958257948672    0.12063005582464
C           0.68592162500589    1.66457121751757    0.18523490056185
C           1.95583017162632    1.14944278531823    0.07522829217482
C           3.26395307307319    1.81318556843943    0.08289105599030
O           4.29508287940211    1.20671709112216   -0.02983125940437
O           3.25594355285091    3.15299028903491    0.22235329372104
S           1.98229477634164   -0.58454330426629   -0.10827814529717
C           0.26217265846610   -0.62837267565296   -0.03767073624285
C          -0.71623735681883   -1.64190214187627   -0.10253305470889
H          -2.89800314115943   -1.65449017516569   -0.00973898821896
H           0.43793611000080    2.70521313934588    0.30496199246436
H           2.36614117015285    3.51550290543118    0.31061480146862
H          -0.50129344867457   -2.68700349604089   -0.22248259482791
