# ORCA input file
# SCF done        -26.333907776077          0.000246753773
! B3LYP/G D3BJ Opt RIJCOSX def2-SVP def2/J
* xyz 0 1
   C        1.47376        -0.97692        -0.00215
   S        2.32693         0.52762         0.00162
   C        0.88485         1.48260         0.00380
   C       -0.18748         0.65790         0.00283
   C        0.14420        -0.72732        -0.00052
   O       -1.02240        -1.42825        -0.00138
   C       -2.02069        -0.51337         0.00195
   S       -3.58676        -0.88833         0.00131
   O       -1.54503         0.75444         0.00390
   H        2.00154        -1.90667        -0.00479
   H        0.93436         2.55056         0.00598
*
