11
 SCF done        -26.333907776077          0.000246753773
C           1.47375731653319   -0.97692035654647   -0.00214570197000
S           2.32692520742554    0.52761906846064    0.00162047146412
C           0.88485143668156    1.48260109346756    0.00379858348354
C          -0.18748430125225    0.65790007019287    0.00282758715977
C           0.14419661330578   -0.72731681213082   -0.00052128812063
O          -1.02240211019128   -1.42825265503752   -0.00137821382445
C          -2.02068684979010   -0.51337168030288    0.00194506032444
S          -3.58675789505607   -0.88833406724471    0.00131419718073
O          -1.54503077636664    0.75443502752179    0.00389889606602
H           2.00153523397827   -1.90666509532732   -0.00479100867761
H           0.93435612473200    2.55055540694685    0.00598141691407
