21
 SCF done        -35.936066599212          0.000952251555
C           1.57794737001339    1.20693163711053    0.09145024709861
S           2.78162796922895   -0.01969019245208    0.03225317781847
C           1.58029914432889   -1.24025287078369    0.01270096051976
C           0.32142680647588   -0.72158128724795    0.05256973724266
C           0.31773787846386    0.70067728828011    0.09536475994178
C          -0.95094117585050    1.48904308156917    0.16706780826900
C          -2.11271265121945    0.66091951911393   -0.37756981296996
C          -2.16829127434069   -0.68938649825524    0.33063795719520
C          -0.93008860678194   -1.53599092852888    0.00189945949674
N          -1.12369054017871   -2.07946568874333   -1.37351665303117
O          -0.83007105545704   -1.37368770869422   -2.30633208288444
O          -1.59883372788847   -3.18699085124081   -1.45584563533933
H           1.87589887376254    2.23585058249413    0.11733431472668
H           1.86892854476951   -2.27198389027010   -0.03056504590529
H          -0.84585187061537    2.41863695383664   -0.39383799828956
H          -1.14749569338014    1.75345220511919    1.21166525951609
H          -1.97694114298331    0.51032074445306   -1.45048004712585
H          -3.05230920377796    1.19371503675571   -0.22633572598397
H          -3.06720489864748   -1.24026601536915    0.04511053449789
H          -2.19726599893718   -0.53580655203843    1.41153624588028
H          -0.87941874698477   -2.41021456510858    0.65920253932642
