# ORCA input file
# SCF done        -24.900707223883          0.000348324034
! B3LYP/G D3BJ Opt RIJCOSX def2-SVP def2/J
* xyz 0 1
   C        3.38287         0.91842         2.17644
   N        2.40002         1.22985         2.85825
   N        3.52134         0.84074         0.79281
   C        3.04411         1.63212        -0.07324
   C        2.22106         2.81232         0.11768
   C        1.42381         3.05039         1.18336
   S        0.52831         4.51033         1.20235
   C        1.08300         5.04209        -0.32198
   S        2.18024         4.03612        -1.15610
   H        4.31028         0.54178         2.63805
   H        3.31178         1.42066        -1.10628
   H        1.42840         2.35150         2.04434
   H        0.73948         5.95876        -0.75323
*
