# ORCA input file
# SCF done        -39.199709324430          0.000983209269
! B3LYP/G D3BJ Opt RIJCOSX def2-SVP def2/J
* xyz 0 1
   C        1.55416        -1.37768        -0.14271
   S        2.75321        -0.15063        -0.12881
   C        1.53188         1.08812        -0.02644
   C        0.27210         0.53648        -0.01689
   C        0.28881        -0.88056        -0.07866
   C       -0.95088        -1.72600        -0.11135
   C       -1.18516        -2.25409        -1.53105
   C       -2.14423        -0.91529         0.40274
   C       -2.21337         0.45977        -0.25232
   C       -0.99795         1.33053         0.10592
   C       -1.12150         1.86327         1.50788
   C       -1.38387         3.12222         1.80178
   C        1.88855         2.47932         0.03991
   C        3.13327         2.94728         0.00738
   H        1.85783        -2.40470        -0.19627
   H       -0.80432        -2.59271         0.54443
   H       -1.28110        -1.43586        -2.24017
   H       -2.09221        -2.85388        -1.56604
   H       -0.34783        -2.87334        -1.84352
   H       -2.05816        -0.79577         1.48413
   H       -3.06705        -1.46388         0.20339
   H       -3.12145         0.97655         0.06615
   H       -2.26049         0.34425        -1.33651
   H       -0.96907         2.18069        -0.58519
   H       -0.98510         1.13589         2.29723
   H       -1.52047         3.86932         1.03516
   H       -1.47520         3.46497         2.81851
   H        1.05460         3.16236         0.13168
   H        3.98166         2.28757        -0.07537
   H        3.34221         4.00081         0.06380
*
