# ORCA input file
# SCF done        -19.902046535148          0.000566354349
! B3LYP/G D3BJ Opt RIJCOSX def2-SVP def2/J
* xyz 0 1
   C       -1.24058         0.03033        -0.02730
   O       -0.45387         1.14117         0.00242
   C        0.79224         0.64977         0.04216
   C        2.28431         0.82708         0.09412
   C        2.33819        -0.73822         0.08850
   C        0.82187        -0.70685         0.03763
   C       -0.52072        -1.13877        -0.00931
   H       -2.29842         0.19831        -0.06120
   H        2.66570         1.29558         0.99982
   H        2.72702         1.30468        -0.77834
   H        2.75727        -1.17761         0.99091
   H        2.81603        -1.16877        -0.78866
   H       -0.92701        -2.12966        -0.02699
*
