# ORCA input file
# SCF done        -36.475667105757          0.000529554402
! B3LYP/G D3BJ Opt RIJCOSX def2-SVP def2/J
* xyz 0 1
   C        1.54326        -1.59235         0.13582
   C        0.56485        -0.66301         0.03048
   C        0.81262         0.79983        -0.05519
   C        2.12192         1.32104        -0.03160
   C        3.21668         0.53481         0.06897
   S        3.20723        -1.18864         0.18282
   N       -0.29766         1.49475        -0.15046
   C       -1.31949         0.58445        -0.13505
   C       -0.84549        -0.73570        -0.02669
   S       -2.12169        -1.88030        -0.00607
   C       -3.30251        -0.58491        -0.14461
   C       -2.71937         0.65763        -0.20151
   C       -4.69357        -0.94826        -0.18181
   C       -5.70893        -0.09583        -0.29968
   H        1.34515        -2.65109         0.19759
   H        2.23798         2.39271        -0.09787
   H        4.21595         0.93698         0.08608
   H       -3.27150         1.57424        -0.28557
   H       -4.88903        -2.00988        -0.10518
   H       -5.55913         0.96678        -0.37928
   H       -6.72729        -0.44156        -0.32122
*
