21
 SCF done        -36.475667105757          0.000529554402
C           1.54325513248963   -1.59235132319161    0.13581500325223
C           0.56485440495548   -0.66300637412967    0.03048107735181
C           0.81261680093574    0.79983299705545   -0.05519343720828
C           2.12191783573656    1.32103958102521   -0.03159666432105
C           3.21668485738607    0.53480791213844    0.06896944511939
S           3.20723050046248   -1.18864212202745    0.18282117649942
N          -0.29766044862817    1.49474894612687   -0.15045919545026
C          -1.31948603375978    0.58445469309280   -0.13504677145595
C          -0.84548765462647   -0.73569729681486   -0.02668631774213
S          -2.12169129034839   -1.88030290940590   -0.00607170696917
C          -3.30250786560046   -0.58490678937540   -0.14461253452426
C          -2.71937158762368    0.65763266317693   -0.20151377129398
C          -4.69356521610734   -0.94826425289803   -0.18181123012256
C          -5.70893075793039   -0.09583351326564   -0.29967741365306
H           1.34514734958438   -2.65108860660874    0.19759071909969
H           2.23797594051083    2.39270739678730   -0.09786649424417
H           4.21595060304857    0.93698483378950    0.08608167735036
H          -3.27149997116046    1.57424063415346   -0.28556941342392
H          -4.88903483882547   -2.00988439786512   -0.10517636244458
H          -5.55913155887678    0.96677963656925   -0.37927978376898
H          -6.72728620162242   -0.44156170833293   -0.32121800205060
