21
 SCF done        -29.745051834230          0.000484673864
C          -1.54992036309738   -1.21402375454132    0.15175828194227
S          -2.71537004139136    0.02954619090238    0.23423180727864
C          -1.52102439192316    1.24510640302696    0.14885283588368
C          -0.25316884910845    0.71925787265507    0.06058057161049
C          -0.26658013297194   -0.72332799654649    0.06231963110808
C           0.96099031798693   -1.44177220291568   -0.02258081731642
C           0.99951670280105   -2.94139576578114   -0.02466323575973
C           2.11350333451113   -0.71631731323579   -0.10389970472792
C           2.12459774145669    0.69737511379000   -0.10600613389189
C           0.97867055099396    1.42964057580064   -0.02621171892894
C           0.97683007163720    2.92612650040953   -0.02674770236009
H          -1.88302536821104   -2.23185810312670    0.17497204455193
H          -1.81609709345000    2.27456154017934    0.16902643684996
H           0.00619927622645   -3.36839015273228    0.06341818969249
H           1.60575184437766   -3.30304144007830    0.80518007630501
H           1.45049562877848   -3.30449920935939   -0.94770458565345
H           3.05972937391457   -1.23472431338411   -0.17021393349341
H           3.07829573803059    1.20134550324380   -0.17410124259513
H           1.99033178382073    3.31099318671989   -0.10638683319220
H           0.53015495235911    3.30592062959135    0.89187603948020
H           0.39198892325877    3.30547673538224   -0.86424000678356
