# ORCA input file
# SCF done        -29.745051834230          0.000484673864
! B3LYP/G D3BJ Opt RIJCOSX def2-SVP def2/J
* xyz 0 1
   C       -1.54992        -1.21402         0.15176
   S       -2.71537         0.02955         0.23423
   C       -1.52102         1.24511         0.14885
   C       -0.25317         0.71926         0.06058
   C       -0.26658        -0.72333         0.06232
   C        0.96099        -1.44177        -0.02258
   C        0.99952        -2.94140        -0.02466
   C        2.11350        -0.71632        -0.10390
   C        2.12460         0.69738        -0.10601
   C        0.97867         1.42964        -0.02621
   C        0.97683         2.92613        -0.02675
   H       -1.88303        -2.23186         0.17497
   H       -1.81610         2.27456         0.16903
   H        0.00620        -3.36839         0.06342
   H        1.60575        -3.30304         0.80518
   H        1.45050        -3.30450        -0.94770
   H        3.05973        -1.23472        -0.17021
   H        3.07830         1.20135        -0.17410
   H        1.99033         3.31099        -0.10639
   H        0.53015         3.30592         0.89188
   H        0.39199         3.30548        -0.86424
*
