10
 SCF done        -17.066648914615          0.000639902337
C          -1.27237903257958   -0.13177012272817   -0.00186724103740
S          -0.46041184365520    1.38342175520819   -0.00159369149277
C           1.07027747146253    0.60128546791273   -0.00085903122232
C           0.95902374900121   -0.74915928538395    0.00047187850206
C          -0.39559634954841   -1.17213827222020   -0.00025023383729
S          -0.90868079203459   -2.85986316556655    0.00070854818115
H          -2.34245316963469   -0.17169726462556   -0.00266708392363
H           1.96508917170185    1.19100145980466   -0.00062639856412
H           1.79510321837144   -1.42602934776233    0.00193253002301
H           0.32528757691544   -3.35816122463883    0.00842072337130
