# ORCA input file
# SCF done        -17.066648914615          0.000639902337
! B3LYP/G D3BJ Opt RIJCOSX def2-SVP def2/J
* xyz 0 1
   C       -1.27238        -0.13177        -0.00187
   S       -0.46041         1.38342        -0.00159
   C        1.07028         0.60129        -0.00086
   C        0.95902        -0.74916         0.00047
   C       -0.39560        -1.17214        -0.00025
   S       -0.90868        -2.85986         0.00071
   H       -2.34245        -0.17170        -0.00267
   H        1.96509         1.19100        -0.00063
   H        1.79510        -1.42603         0.00193
   H        0.32529        -3.35816         0.00842
*
