19
 SCF done        -32.197235402420          0.000556424585
N           0.61859181244996   -1.64131353229051   -0.13297103923427
C          -0.47135075622259   -0.78270505167038   -0.06361962173996
C          -1.73441097762308   -1.20997563613607    0.22210856537556
S          -2.90798278891543    0.04181223226659    0.08632122254911
C          -1.68422335139155    1.17739291723674   -0.32156005411336
C          -0.44325565133051    0.61954530415134   -0.36771073353842
N           0.73038075704518    1.32204342528181   -0.68812250964756
C           1.77317894972728    1.30711324089186    0.32271510594487
C           2.32505761715871   -0.08340301884389    0.57402211657072
O           2.96424959188366   -0.35448763239917    1.55845207740471
C           1.92567004561977   -1.11270807377118   -0.46992502947936
H           0.63082295046888   -2.34780027692214    0.58877230614457
H          -2.04417388913246   -2.20071606493193    0.48550575360019
H          -1.95055236702479    2.19715066287429   -0.51793717809361
H           0.50623867313843    2.27111009366820   -0.96438075422039
H           1.45794324851847    1.73766997258413    1.28826684849064
H           2.61238901289091    1.90872248502626   -0.04463387449711
H           2.63807342386915   -1.93912334728968   -0.47639513224659
H           1.87016369886982   -0.65154769972611   -1.45854806926957
