# ORCA input file
# SCF done        -28.645232064474          0.000734996623
! B3LYP/G D3BJ Opt RIJCOSX def2-SVP def2/J
* xyz 0 1
   C        1.41775         1.16180        -0.40504
   S        2.63283        -0.05700        -0.41933
   C        1.45686        -1.26392        -0.06775
   C        0.20644        -0.74950         0.05831
   C        0.18292         0.66131        -0.14090
   C       -1.08482         1.45654        -0.10760
   C       -2.22198         0.65430         0.52381
   C       -2.28755        -0.77869        -0.01425
   C       -2.46242        -0.82040        -1.53059
   C       -1.02115        -1.53037         0.40722
   H        1.69446         2.17988        -0.59626
   H        1.76733        -2.28535         0.02997
   H       -1.35471         1.73598        -1.13045
   H       -0.92921         2.38546         0.44665
   H       -3.16957         1.16403         0.33828
   H       -2.07403         0.61062         1.60553
   H       -3.15166        -1.27384         0.44407
   H       -1.56124        -0.48130        -2.03437
   H       -3.29417        -0.19063        -1.83811
   H       -2.66694        -1.83861        -1.85563
   H       -0.98640        -2.51476        -0.06436
   H       -1.03973        -1.68829         1.49075
*
