# ORCA input file
# SCF done        -53.130927155075          0.000712607527
! B3LYP/G D3BJ Opt RIJCOSX def2-SVP def2/J
* xyz 0 1
   C       -0.72945         0.86504         0.30750
   C       -0.57891         0.48596        -0.98226
   C        0.47769        -0.44542        -1.17744
   C        1.12040        -0.74280         0.00977
   S        0.42242         0.12012         1.34450
   C        2.22783        -1.60195         0.19015
   C        2.70176        -2.54736        -0.70294
   C        2.18756        -2.93209        -2.02438
   O        2.47250        -4.02757        -2.46841
   N        1.48131        -2.04037        -2.82397
   C        0.77157        -0.87407        -2.54986
   O        0.32137        -0.22299        -3.47325
   C        1.39136        -2.46081        -4.22969
   C        0.13105        -3.27688        -4.48129
   C        3.80017        -3.26662        -0.18029
   C        4.17731        -2.87938         1.07621
   S        3.14209        -1.60794         1.66185
   C        5.24327        -3.36330         1.91414
   C        6.10373        -4.31926         1.57336
   H       -1.44755         1.54365         0.72248
   H       -1.18295         0.83866        -1.79780
   H        2.27599        -3.05793        -4.45174
   H        1.38795        -1.55703        -4.83996
   H        0.13279        -4.16898        -3.85993
   H        0.09481        -3.57665        -5.52481
   H       -0.75263        -2.68413        -4.25719
   H        4.27878        -4.04701        -0.74217
   H        5.31580        -2.88931         2.88414
   H        6.06180        -4.81346         0.61868
   H        6.87893        -4.63734         2.24759
*
