# ORCA input file
# SCF done        -35.755454995565          0.000378990362
! B3LYP/G D3BJ Opt RIJCOSX def2-SVP def2/J
* xyz 0 1
   C       -0.86314        -1.52806        -0.00195
   C       -2.06124        -0.86145        -0.01056
   C       -2.14327         0.54040        -0.00826
   C       -1.02753         1.35505         0.00291
   C        0.21387         0.68276         0.01231
   C        0.29479        -0.74311         0.00992
   N        1.59816        -1.06941         0.02547
   N        2.21323         0.08052         0.03749
   C        3.64589         0.16334         0.01823
   C        4.16003         0.19122        -1.41791
   N        1.47113         1.15318         0.02927
   C       -1.04229         2.80774         0.00387
   C       -2.11841         3.58680         0.00629
   H       -0.79931        -2.60400        -0.00447
   H       -2.98208        -1.42685        -0.02007
   H       -3.12497         0.98875        -0.01648
   H        4.03267        -0.71084         0.54552
   H        3.92917         1.07749         0.54357
   H        3.85738        -0.71261        -1.94104
   H        5.24463         0.25291        -1.42148
   H        3.75702         1.05364        -1.94339
   H       -0.05530         3.25153         0.00424
   H       -3.12131         3.19479         0.00872
   H       -2.03149         4.65970         0.00819
*
