21
 SCF done        -39.146826718051          0.000406134250
C          -1.43704104787309    1.25870942454413   -0.11893859253259
S          -2.53892940150696   -0.03224999852949   -0.15131442081675
C          -1.28994843114097   -1.22847189799572   -0.02693597706572
C          -0.03898595681101   -0.62227229953511    0.00227072623474
C          -0.13143691625688    0.81664943432264   -0.03862524099676
C           1.03737444451962    1.60163894806224   -0.00205476820200
C           2.24955571393131    0.96784015594124    0.04369616861604
N           3.45252377731077    1.75213776749463    0.08694964091411
O           3.33892521736818    2.96166805101108    0.09398678617442
O           4.51331207021638    1.16214316568779    0.11671139285327
C           2.35869367099995   -0.44617230035390    0.02594618089690
C           1.24409314207319   -1.22401657952916    0.00311109217836
C          -1.68454708750401   -2.61142350552178    0.04665175769978
C          -1.00283601595072   -3.59565357622374    0.62768862107892
H          -1.78519849011254    2.27137086923115   -0.15542063372825
H           0.98102212783134    2.67927414254693   -0.01539391991605
H           3.34750932438126   -0.87688685301577    0.02393267359891
H           1.32957995558074   -2.29686942282026   -0.04152401212781
H          -2.65587947716967   -2.82277028090812   -0.38308007820808
H          -0.06578024915380   -3.43496866428384    1.13037381245461
H          -1.38653637073303   -4.60065658012492    0.63833879089394
