# ORCA input file
# SCF done        -42.063780383858          0.000400919843
! B3LYP/G D3BJ Opt RIJCOSX def2-SVP def2/J
* xyz 0 1
   C        0.26582         1.21007        -0.26286
   S       -1.04938         0.28208        -0.86295
   C       -0.09750        -1.14667        -0.86394
   C        1.16797        -0.91662        -0.42202
   N        2.15776        -1.89914        -0.23214
   O        1.74813        -3.13863        -0.75682
   O        3.39568        -1.55492        -0.79192
   C        1.37955         0.45434        -0.06950
   N        2.64636         0.92800         0.30703
   O        3.18901         0.21160         1.40784
   O        2.59819         2.28852         0.64772
   C        3.74001         2.95178         0.28569
   C        3.93082         4.21772         0.60591
   H        0.15461         2.25986        -0.08753
   H       -0.51687        -2.08009        -1.17739
   H        2.07604        -3.80914        -0.14101
   H        3.30781        -1.38908        -1.74697
   H        3.84204        -0.39257         1.02379
   H        4.45302         2.36090        -0.27580
   H        3.19860         4.76558         1.17008
   H        4.82414         4.73013         0.30626
*
