21
 SCF done        -42.063780383858          0.000400919843
C           0.26581910998808    1.21007354335226   -0.26285919462505
S          -1.04938342966863    0.28207752346293   -0.86294852234002
C          -0.09749780280159   -1.14666958362196   -0.86393770868123
C           1.16796678041306   -0.91661596209735   -0.42201668015606
N           2.15776385428521   -1.89914101457866   -0.23213880467530
O           1.74813457521791   -3.13863081172831   -0.75681984745907
O           3.39567945098803   -1.55492189488205   -0.79191697603175
C           1.37954695853569    0.45433542224537   -0.06950286163656
N           2.64636072736058    0.92799785700665    0.30703408208863
O           3.18901261717840    0.21160331597438    1.40783508978990
O           2.59819179281904    2.28851549438380    0.64772156678796
C           3.74001361156828    2.95178237941361    0.28569113916206
C           3.93081753897482    4.21771823144966    0.60591326580082
H           0.15461052312692    2.25985924734877   -0.08752797535603
H          -0.51687468804267   -2.08009247379047   -1.17738773860604
H           2.07603584167613   -3.80913816596046   -0.14100827720938
H           3.30780582513778   -1.38908232009459   -1.74696708502036
H           3.84204107532162   -0.39257459267633    1.02378513262998
H           4.45301916106291    2.36090040608798   -0.27580242320372
H           3.19859644871096    4.76558473508565    1.17007705960678
H           4.82414002814718    4.73012866362004    0.30625675913414
