# ORCA input file
# SCF done        -33.917389484001          0.000620189530
! B3LYP/G D3BJ Opt RIJCOSX def2-SVP def2/J
* xyz 0 1
   C        1.60576         1.24938        -0.05104
   S        2.79489         0.00581        -0.04797
   C        1.56608        -1.19715        -0.01999
   C        0.31663        -0.66350        -0.01481
   C        0.33826         0.76005        -0.02913
   C       -0.90304         1.60130         0.03515
   C       -1.00967         2.25883         1.41603
   C       -2.13465         0.74659        -0.28464
   C       -2.11379        -0.58524         0.45875
   C       -0.95248        -1.45872        -0.04198
   C       -1.26969        -1.98292        -1.41892
   C       -0.66809        -1.63352        -2.53970
   H        1.92088         2.27382        -0.06940
   H        1.84210        -2.23287        -0.01683
   H       -0.82922         2.40265        -0.70979
   H       -1.03682         1.50799         2.20166
   H       -1.91265         2.86209         1.47963
   H       -0.15067         2.90112         1.59361
   H       -2.16328         0.54462        -1.35812
   H       -3.03640         1.30412        -0.02309
   H       -3.05770        -1.11116         0.30079
   H       -2.00181        -0.41318         1.53036
   H       -0.84925        -2.32631         0.62254
   H       -2.08919        -2.69035        -1.44132
   H        0.14694        -0.92987        -2.55709
   H       -0.96329        -2.04273        -3.49128
*
