26
 SCF done        -33.917389484001          0.000620189530
C           1.60575669356306    1.24938254622709   -0.05103739919155
S           2.79489052314778    0.00580856143104   -0.04797473995546
C           1.56607959642958   -1.19715369461700   -0.01999004389819
C           0.31663019985438   -0.66349633289325   -0.01481373116796
C           0.33825901244577    0.76004658749412   -0.02912810968011
C          -0.90304166445222    1.60130472265594    0.03515133668746
C          -1.00967072435940    2.25883470604101    1.41603226424610
C          -2.13465091945552    0.74659082350062   -0.28463602219409
C          -2.11379412733182   -0.58524031074041    0.45875164449262
C          -0.95248098852861   -1.45872006831517   -0.04198436429392
C          -1.26968739087507   -1.98291942055730   -1.41891807905395
C          -0.66808765688002   -1.63352358520200   -2.53970217767091
H           1.92087549311227    2.27382443734650   -0.06940309449466
H           1.84210315777196   -2.23287158036890   -0.01682667901784
H          -0.82921998468657    2.40265338125020   -0.70979128673270
H          -1.03681869654430    1.50799114177595    2.20165856048946
H          -1.91264507372768    2.86209162143010    1.47963195358325
H          -0.15066564636819    2.90111669798465    1.59361055499198
H          -2.16328421299685    0.54461968859125   -1.35812373810325
H          -3.03639527920402    1.30412327621501   -0.02309029755600
H          -3.05770017962207   -1.11116455723217    0.30079487496744
H          -2.00180759801809   -0.41318334705213    1.53035905625150
H          -0.84924549657977   -2.32631279426233    0.62253642728483
H          -2.08918878725044   -2.69034852419628   -1.44131728571285
H           0.14694162758753   -0.92987344928149   -2.55709233876379
H          -0.96329187703167   -2.04273052722497   -3.49127728550742
