# ORCA input file
# SCF done        -30.960316578113          0.000570909997
! B3LYP/G D3BJ Opt RIJCOSX def2-SVP def2/J
* xyz 0 1
   C       -2.81957         0.45511         0.00275
   C       -3.14974        -0.85351         0.00455
   S       -1.77878        -1.91113         0.00614
   C       -0.70540        -0.54556         0.00458
   C       -1.41100         0.67112         0.00283
   C       -0.70898         1.88842         0.00134
   C        0.66011         1.89581         0.00147
   C        1.37523         0.68616         0.00320
   C        0.68280        -0.53806         0.00479
   S        1.77088        -1.89198         0.00677
   C        3.13033        -0.81960         0.00532
   C        2.78606         0.48537         0.00364
   H       -3.53857         1.25486         0.00150
   H       -4.12982        -1.28886         0.00499
   H       -1.26679         2.81259         0.00000
   H        1.20792         2.82594         0.00033
   H        4.11506        -1.24435         0.00587
   H        3.49637         1.29284         0.00260
*
