# ORCA input file
# SCF done        -27.271771883658          0.000716581318
! B3LYP/G D3BJ Opt RIJCOSX def2-SVP def2/J
* xyz 0 1
   C        0.46362         1.73404         0.23560
   S       -0.77716         0.75607        -0.42390
   C        0.18221        -0.66236        -0.17836
   C       -0.35653        -1.95946        -0.57341
   O       -1.43969        -2.12885        -1.07871
   O        0.50566        -2.95653        -0.30364
   C        0.06901        -4.25939        -0.66134
   C        1.39596        -0.36247         0.38512
   C        1.55439         1.01294         0.62137
   H        0.31993         2.79454         0.30289
   H        0.77969        -4.95163        -0.21665
   H        0.05872        -4.36928        -1.74799
   H       -0.93796        -4.44053        -0.27998
   H        2.13193        -1.11139         0.61339
   H        2.43524         1.44939         1.05680
*
