# ORCA input file
# SCF done        -39.998199227140          0.000940289798
! B3LYP/G D3BJ Opt RIJCOSX def2-SVP def2/J
* xyz 0 1
   C        0.23943         1.17106        -0.12724
   S       -0.84560        -0.13293        -0.18716
   C        0.43536        -1.30479         0.00688
   C        1.64492        -0.66708         0.11793
   C        1.53121         0.74596         0.04045
   N        2.64223         1.63908         0.15815
   O        2.42306         2.81658        -0.01179
   O        3.71412         1.14550         0.42792
   N        2.92037        -1.35065         0.30701
   O        3.18140        -1.69072         1.43057
   O        3.56818        -1.55401        -0.68687
   C        0.09049        -2.70616         0.02111
   C        0.93476        -3.72872        -0.08108
   H       -0.08782         2.18928        -0.20602
   H       -0.97254        -2.89327         0.10612
   H        1.99803        -3.61923        -0.20140
   H        0.56911        -4.73994        -0.05814
*
