17
 SCF done        -39.998199227140          0.000940289798
C           0.23943292552485    1.17105665347781   -0.12724357950723
S          -0.84560350236991   -0.13292738324964   -0.18716199753181
C           0.43536247267808   -1.30478781589464    0.00687847509128
C           1.64492256443881   -0.66707926161578    0.11792570570357
C           1.53120555607421    0.74596125968296    0.04045287945968
N           2.64222892991424    1.63907556555287    0.15815346815304
O           2.42305635979025    2.81658314830277   -0.01179117588924
O           3.71412139267823    1.14549748106982    0.42792032870914
N           2.92037037468850   -1.35065109169425    0.30700656146560
O           3.18140240014954   -1.69071846556597    1.43057116340591
O           3.56818436187330   -1.55401238384720   -0.68687331284574
C           0.09048911196600   -2.70615973293745    0.02111371820022
C           0.93475714342795   -3.72872186805750   -0.08108061404083
H          -0.08781960067934    2.18928306227667   -0.20602208613462
H          -0.97254216478832   -2.89326770062613    0.10612352134782
H           1.99802735110434   -3.61923380538134   -0.20140075431227
H           0.56911432352934   -4.73993766149297   -0.05814230127442
