# ORCA input file
# SCF done        -31.692881666696          0.000801143315
! B3LYP/G D3BJ Opt RIJCOSX def2-SVP def2/J
* xyz 0 1
   C        1.79429        -1.45656         2.01796
   C        2.38916        -0.77890         1.08730
   C        2.98438        -0.09898         0.15775
   C        3.40223        -0.66077        -1.19573
   C        4.02370         0.53243        -1.83203
   C        4.00635         1.62634        -1.05367
   C        3.36388         1.37370         0.26961
   C        4.62697         2.73989        -1.75782
   C        5.01296         2.27804        -2.97275
   C        4.66896         0.82900        -3.13968
   C        4.81352         4.09496        -1.28876
   C        4.46249         4.56249        -0.09615
   H        0.71864        -1.51942         2.07842
   H        2.34641        -1.99030         2.77631
   H        2.53846        -1.03402        -1.75518
   H        4.10380        -1.49340        -1.08288
   H        2.47825         1.99521         0.43009
   H        4.04816         1.53824         1.10665
   H        5.50509         2.84760        -3.74075
   H        5.55941         0.22104        -3.31579
   H        3.99695         0.66869        -3.98593
   H        5.28594         4.75596        -2.00500
   H        3.99105         3.94422         0.64739
   H        4.63797         5.58907         0.17829
*
