# ORCA input file
# SCF done        -24.102925765925          0.000150881145
! B3LYP/G D3BJ Opt RIJCOSX def2-SVP def2/J
* xyz 0 1
   C        0.16043         1.23907        -0.10077
   S       -1.05185         0.04445        -0.27841
   C        0.12745        -1.22500        -0.11123
   C       -0.20257        -2.65660        -0.16206
   O        0.63497        -3.50926        -0.04015
   O       -1.49536        -2.97474        -0.35296
   C        1.38196        -0.70449         0.07100
   C        1.39777         0.70144         0.07658
   H       -0.11917         2.27356        -0.13865
   H       -2.06904        -2.20122        -0.43635
   H        2.24742        -1.32925         0.19445
   H        2.28664         1.29175         0.20621
*
