12
 SCF done        -24.102925765925          0.000150881145
C           0.16043386758454    1.23906718027348   -0.10077031984380
S          -1.05185068218833    0.04445245736202   -0.27841008484495
C           0.12744640976877   -1.22499597141597   -0.11123496227788
C          -0.20257467480353   -2.65660484405022   -0.16206009983572
O           0.63496676730488   -3.50925528803726   -0.04014728750069
O          -1.49535511343943   -2.97473840556259   -0.35296380358221
C           1.38196005789014   -0.70448589648598    0.07099752425807
C           1.39776840961665    0.70143770115146    0.07658088769626
H          -0.11916569034957    2.27356136800623   -0.13865354989165
H          -2.06904448035480   -2.20121565524090   -0.43635410805802
H           2.24741678901045   -1.32925197149095    0.19444688857422
H           2.28663833996022    1.29174932549067    0.20620891530638
