# ORCA input file
# SCF done        -31.617762580613          0.000518040955
! B3LYP/G D3BJ Opt RIJCOSX def2-SVP def2/J
* xyz 0 1
   C        0.86332         1.55625         0.15950
   S        2.33174         0.64468         0.10666
   C        1.52550        -0.89924        -0.07221
   C        0.17978        -0.66028        -0.08297
   C       -0.18398         0.70470         0.04658
   O       -1.54431         0.77391         0.02009
   C       -1.98958        -0.49678        -0.11936
   S       -3.54640        -0.90524        -0.19754
   O       -0.97174        -1.38374        -0.18418
   C        2.26162        -2.12935        -0.18163
   C        1.68250        -3.31642        -0.34136
   H        0.88053         2.61984         0.26711
   H        3.33632        -2.02913        -0.12649
   H        0.61216        -3.41847        -0.39855
   H        2.26483        -4.21675        -0.42015
*
