15
 SCF done        -31.617762580613          0.000518040955
C           0.86332320704134    1.55624965179768    0.15950415765576
S           2.33173553959427    0.64467740994549    0.10665575283479
C           1.52550092395047   -0.89924328532043   -0.07221462985552
C           0.17977765590545   -0.66027690513542   -0.08297406986204
C          -0.18398090618893    0.70470271896668    0.04657627428334
O          -1.54430803693668    0.77390588966095    0.02009274936692
C          -1.98957717472582   -0.49678381327244   -0.11936161243061
S          -3.54639703627168   -0.90524230447696   -0.19754344523365
O          -0.97174438007885   -1.38373918585199   -0.18417763983143
C           2.26162327742028   -2.12934866686387   -0.18162616948096
C           1.68250296945441   -3.31642242226829   -0.34135845249111
H           0.88053233781761    2.61983664673289    0.26710767898315
H           3.33631691335805   -2.02912824277400   -0.12648667224938
H           0.61216366565475   -3.41846670262521   -0.39854541764083
H           2.26483104400534   -4.21675078851510   -0.42014850404843
