20
 SCF done        -34.364147611786          0.000561621032
C          -3.17348680460899   -0.09594166908424    0.03926252531148
C          -2.55602904061603   -1.30294804547531   -0.06398663671035
C          -1.15566367459254   -1.15359182813428   -0.04304129347382
C          -0.73962156757427    0.18212265628813    0.07743343518795
S          -2.08977428526049    1.25314851817159    0.16464525483466
C           0.66121489973759    0.17150914083903    0.08457592318187
C           1.05688752373750   -1.17205517139766   -0.03212792565436
N          -0.05629251502621   -1.96832359283792   -0.10917077742351
C           2.44761760464023   -1.34686243923484   -0.03973746963433
C           3.11326992533068   -0.15013879766885    0.06983000733112
S           2.02143551387568    1.22448507192067    0.18529083362592
C           4.53690394443250    0.03149792447174    0.09523325618954
C           5.15792217572432    1.20279462374773    0.20598849234141
H          -4.22738073676885    0.09849822982516    0.05061434479554
H          -3.07702334564478   -2.23912314581116   -0.14950969425357
H          -0.06420590960250   -2.96932269222830   -0.19632655469469
H           2.94947471100390   -2.29439829440989   -0.12049599398970
H           5.10885468713407   -0.88523640452413    0.01727670887424
H           4.60561981542298    2.12452465326821    0.28501902538134
H           6.23069707865509    1.27538126227438    0.21966653877920
