31
 SCF done        -45.176372654240          0.000393426811
C          -0.02182323248187    1.17701922255158   -0.47789726533946
S          -0.97428423427861   -0.25004140980151   -0.51981205826787
C           0.44072753430780   -1.26280034687754   -0.53003913422315
C           1.59165632365622   -0.49584765556890   -0.50341366139726
C           1.31580124122932    0.91019789818954   -0.48044212161390
O           2.33380360160404    1.81948267283261   -0.49583002177499
C           2.00735642577719    3.19016863431547   -0.38135328640627
C           1.63420621173127    3.59359464003618    1.04141190926679
O           2.80530843543437   -1.09974609232196   -0.52040532990659
C           3.95895147045236   -0.37311738362807   -0.12826177974858
C           5.09740139850330   -1.37438494958460   -0.00744973448796
C           0.26902329191191   -2.68100400992430   -0.56436553792022
C           1.25018344002081   -3.59766966812467   -0.65785339091035
C           0.99594991260103   -5.01123278923656   -0.67896049878003
C           1.95361735566446   -5.93296613700141   -0.77185494936926
H          -0.51983312848918    2.12451360643042   -0.47053752444446
H           1.20546824827082    3.44975040320774   -1.08336781616026
H           2.91970729815893    3.70911374268467   -0.68836633719105
H           0.75233379301380    3.05431497423382    1.37784666860654
H           1.43053821045249    4.66007385400365    1.07636821476715
H           2.45512348021897    3.36834819320552    1.71775524332959
H           3.78140496504166    0.12360486052659    0.83309217171383
H           4.19743297069354    0.39105952376007   -0.87633419508123
H           4.85556969772308   -2.12828542796933    0.73735882032776
H           6.00871908334396   -0.86178055159648    0.28643672796134
H           5.25896278393664   -1.86884387509237   -0.96157006075691
H          -0.76186812051953   -3.01084214638820   -0.51249155365355
H           2.27870500082228   -3.27936523453006   -0.72226565625178
H          -0.04170532073791   -5.31523098272732   -0.61539479578592
H           2.99321239739698   -5.65696953017989   -0.83609999107847
H           1.73411946453927   -6.98650403542086   -0.78594305542134
