# ORCA input file
# SCF done        -45.176372654240          0.000393426811
! B3LYP/G D3BJ Opt RIJCOSX def2-SVP def2/J
* xyz 0 1
   C       -0.02182         1.17702        -0.47790
   S       -0.97428        -0.25004        -0.51981
   C        0.44073        -1.26280        -0.53004
   C        1.59166        -0.49585        -0.50341
   C        1.31580         0.91020        -0.48044
   O        2.33380         1.81948        -0.49583
   C        2.00736         3.19017        -0.38135
   C        1.63421         3.59359         1.04141
   O        2.80531        -1.09975        -0.52041
   C        3.95895        -0.37312        -0.12826
   C        5.09740        -1.37438        -0.00745
   C        0.26902        -2.68100        -0.56437
   C        1.25018        -3.59767        -0.65785
   C        0.99595        -5.01123        -0.67896
   C        1.95362        -5.93297        -0.77185
   H       -0.51983         2.12451        -0.47054
   H        1.20547         3.44975        -1.08337
   H        2.91971         3.70911        -0.68837
   H        0.75233         3.05431         1.37785
   H        1.43054         4.66007         1.07637
   H        2.45512         3.36835         1.71776
   H        3.78140         0.12360         0.83309
   H        4.19743         0.39106        -0.87633
   H        4.85557        -2.12829         0.73736
   H        6.00872        -0.86178         0.28644
   H        5.25896        -1.86884        -0.96157
   H       -0.76187        -3.01084        -0.51249
   H        2.27871        -3.27937        -0.72227
   H       -0.04171        -5.31523        -0.61539
   H        2.99321        -5.65697        -0.83610
   H        1.73412        -6.98650        -0.78594
*
