23
 SCF done        -34.252571689691          0.000504817134
C           0.17709115061637    1.46265042379922   -0.05027305226728
S          -1.03119382661267    0.22693465027058    0.56317688557123
C           0.05207751085867   -1.19541806107076    0.20367870828775
C           1.46787848594961   -0.64798739393225    0.00579176848821
C           1.28574086418579    0.68429202972078   -0.74140714769939
C           2.28681619197912   -1.58335583197243   -0.90858109801444
O           1.77980007169980   -2.35024157172827   -1.69290227984487
N           3.61598097016715   -1.39283860263225   -0.80331407191622
N           2.18207979573302   -0.42646975678199    1.24764309967415
C           2.42969992689284   -1.50864842632858    2.08203410275044
C           2.57828254023528   -1.42402988437235    3.39648443794219
H           0.54118071469654    2.03139013985910    0.80635531472419
H          -0.33834893487121    2.14020329895880   -0.72738611564054
H          -0.29280272559531   -1.68940261680895   -0.70487938700277
H          -0.00383548688063   -1.88983560809062    1.04046263415500
H           0.99594905174999    0.46026269727219   -1.76954696370093
H           2.21643429384155    1.25288159925109   -0.75538743682872
H           3.98671382298668   -0.81545482747740   -0.06778637537555
H           4.23693153837452   -1.96931151631640   -1.34611697657801
H           1.85420617343546    0.38452055468346    1.75786185691149
H           2.55646426955497   -2.44774670351019    1.55922025865224
H           2.44670691005373   -0.49398678883682    3.92307511406261
H           2.84729669094874   -2.28139780395582    3.98293672364919
