# ORCA input file
# SCF done        -34.252571689691          0.000504817134
! B3LYP/G D3BJ Opt RIJCOSX def2-SVP def2/J
* xyz 0 1
   C        0.17709         1.46265        -0.05027
   S       -1.03119         0.22693         0.56318
   C        0.05208        -1.19542         0.20368
   C        1.46788        -0.64799         0.00579
   C        1.28574         0.68429        -0.74141
   C        2.28682        -1.58336        -0.90858
   O        1.77980        -2.35024        -1.69290
   N        3.61598        -1.39284        -0.80331
   N        2.18208        -0.42647         1.24764
   C        2.42970        -1.50865         2.08203
   C        2.57828        -1.42403         3.39648
   H        0.54118         2.03139         0.80636
   H       -0.33835         2.14020        -0.72739
   H       -0.29280        -1.68940        -0.70488
   H       -0.00384        -1.88984         1.04046
   H        0.99595         0.46026        -1.76955
   H        2.21643         1.25288        -0.75539
   H        3.98671        -0.81545        -0.06779
   H        4.23693        -1.96931        -1.34612
   H        1.85421         0.38452         1.75786
   H        2.55646        -2.44775         1.55922
   H        2.44671        -0.49399         3.92308
   H        2.84730        -2.28140         3.98294
*
