# ORCA input file
# SCF done        -46.234261590172          0.000462481190
! B3LYP/G D3BJ Opt RIJCOSX def2-SVP def2/J
* xyz 0 1
   C       -0.53241         1.22226        -0.45349
   S       -1.93890         0.24917        -0.38559
   C       -1.04608        -1.19597        -0.04552
   C        0.30862        -0.90404         0.01010
   C        0.59927         0.48308        -0.22639
   N        1.87975         0.94554        -0.21605
   C        2.80187         0.05884         0.02099
   O        4.08790         0.41289         0.04353
   C        4.36377         1.78774        -0.20937
   C        5.86927         1.97893        -0.20212
   C        2.51525        -1.34098         0.26863
   C        3.64553        -2.29654         0.54320
   N        3.24724        -3.66925         0.76664
   N        1.30014        -1.79662         0.25895
   C       -1.65314        -2.47942         0.13985
   C       -2.95944        -2.72541         0.06683
   H       -0.60894         2.27094        -0.65494
   H        3.87810         2.39516         0.56314
   H        3.92861         2.06517        -1.17644
   H        6.27895         1.69267         0.76285
   H        6.10563         3.02122        -0.39448
   H        6.32854         1.36224        -0.97002
   H        4.19557        -1.94049         1.42141
   H        4.34144        -2.26310        -0.30240
   H        2.60641        -3.70995         1.55319
   H        2.73196        -4.00531        -0.04125
   H       -0.94454        -3.26940         0.35078
   H       -3.66727        -1.94011        -0.14411
   H       -3.35751        -3.71321         0.21485
*
