# ORCA input file
# SCF done        -38.789434280445          0.000329389472
! B3LYP/G D3BJ Opt RIJCOSX def2-SVP def2/J
* xyz 0 1
   C        1.41656         0.56892        -0.68030
   C        0.69840         1.75783        -0.58346
   O        1.39173         2.90178        -0.86875
   C        0.72090         4.13200        -0.76227
   C       -0.63584         1.70746        -0.21116
   C       -1.26499         0.49620         0.06895
   C       -0.52250        -0.69723        -0.01885
   C        0.81307        -0.64112        -0.40038
   O       -1.18737        -1.85224         0.27403
   C       -0.48199        -3.07492         0.26152
   C       -1.44992        -4.16616         0.69360
   C       -2.66536         0.42859         0.46793
   C       -3.57393         1.38712         0.33145
   H        2.45334         0.61150        -0.97291
   H        1.45711         4.89254        -1.01860
   H        0.36059         4.30802         0.25704
   H       -0.12038         4.19515        -1.46083
   H       -1.21207         2.61236        -0.11510
   H        1.40082        -1.54130        -0.48390
   H        0.37013        -3.02892         0.95441
   H       -0.10290        -3.28452        -0.74885
   H       -1.82223        -3.95716         1.69296
   H       -0.94674        -5.12893         0.69420
   H       -2.29411        -4.20400         0.01042
   H       -2.95724        -0.52094         0.89449
   H       -3.35660         2.34239        -0.11591
   H       -4.58946         1.24370         0.65855
*
