27
 SCF done        -38.789434280445          0.000329389472
C           1.41655793222645    0.56892161402693   -0.68029802519998
C           0.69839735122675    1.75782717137849   -0.58346377711649
O           1.39173247132684    2.90177889361964   -0.86874564663733
C           0.72090255377711    4.13200201071386   -0.76227023889271
C          -0.63583716674475    1.70745607686774   -0.21116459853338
C          -1.26498561358177    0.49619651180134    0.06895234365986
C          -0.52250234676448   -0.69723323796078   -0.01884835512133
C           0.81307377922594   -0.64112262378405   -0.40038089474545
O          -1.18736880914420   -1.85223870704633    0.27402819000611
C          -0.48198650701242   -3.07492362338279    0.26152396327108
C          -1.44991960891384   -4.16616464768174    0.69360073911390
C          -2.66536078143851    0.42859447175055    0.46792927617206
C          -3.57393099197298    1.38712220710645    0.33144927990062
H           2.45334470559891    0.61150349391233   -0.97290710489596
H           1.45711265272357    4.89253608315763   -1.01860352651934
H           0.36059485184544    4.30802308273763    0.25703908185331
H          -0.12037546102180    4.19515456082035   -1.46082761497119
H          -1.21206858609425    2.61235892064057   -0.11510469231545
H           1.40082119557384   -1.54130393959104   -0.48389900414785
H           0.37012883576305   -3.02892145755905    0.95440979639800
H          -0.10289608531106   -3.28452186882050   -0.74884947906907
H          -1.82223286708764   -3.95716033773998    1.69296102987841
H          -0.94674285999293   -5.12893159860541    0.69419886378811
H          -2.29411333008976   -4.20399796559356    0.01042036493462
H          -2.95723894428613   -0.52093990150985    0.89449213348525
H          -3.35659672575647    2.34239430043493   -0.11591486969969
H          -4.58945964407491    1.24370051030593    0.65855276540381
