17
 SCF done        -33.866642265013          0.000736230862
C          -1.50927889581620   -1.22876524167236    0.28333411166908
S          -2.67790312868729    0.00582165644155    0.33747746162732
C          -1.50488871922083    1.23352231789907    0.15029786562623
C          -0.23435244440556    0.71948466457682    0.05056897383852
C          -0.23513389249789   -0.72210683647116    0.12802686098722
C           0.98305947877494   -1.42474655519349    0.04304500219439
C           2.13932024780170   -0.70907082013996   -0.11308669671248
N           3.39044551370577   -1.41095192789000   -0.20358877254145
O           3.36612798102956   -2.62254841545700   -0.12263158019501
O           4.39945201172499   -0.75373484238307   -0.35594366542013
C           2.15187303119244    0.70959493763825   -0.19055571623904
C           0.99364204029562    1.41243446069032   -0.11038528348447
H          -1.80227342117285   -2.25580884756196    0.36765864038653
H          -1.80532782643328    2.26159874283409    0.12488167310776
H           1.00800233697441   -2.50226059547482    0.09788914075573
H           3.10519668008885    1.19866126052780   -0.31508463841542
H           0.98669900664562    2.48951604163587   -0.16844337718478
