19
 SCF done        -32.551974319676          0.000685322776
C           0.08692092858351    1.53038268046205    0.20197541253954
S          -1.12817337520163    0.33196437133402    0.14945633858199
C           0.06510681228038   -0.88513089542642   -0.15843947257412
C          -0.36496829724922   -2.27048132742960   -0.31884539385608
O          -1.51163979178181   -2.64412061925130   -0.27333936402419
O           0.67993138536674   -3.09427185533153   -0.52194495666834
C           0.35269022902901   -4.46620648008347   -0.68414566827386
C           1.32673154812173   -0.36083597045832   -0.21340014790572
C           1.35427122105115    1.03935100202279   -0.00649785560379
C           2.53301467766186    1.88489257461332   -0.00626129474104
C           3.77863499040571    1.46940811260338   -0.20251818285255
H          -0.18658506226593    2.55148723819405    0.38508696708995
H           1.29870782292435   -4.99766872625524   -0.74934525513989
H          -0.23258152906759   -4.61171551941536   -1.59458918037265
H          -0.23100637618081   -4.82033053457050    0.16799354811646
H           2.19232169653264   -0.96919851634201   -0.39654389420093
H           2.33697016543597    2.93431068783481    0.17114724399053
H           4.01987261314597    0.43575508664482   -0.38154832954554
H           4.60668034120789    2.15652869085448   -0.18971051455986
