# ORCA input file
# SCF done        -32.147041821489          0.000562567296
! B3LYP/G D3BJ Opt RIJCOSX def2-SVP def2/J
* xyz 0 2
   C        0.23359        -0.29449         1.25164
   S        1.19661         0.05113        -0.12046
   C       -0.13190         0.96677        -0.89755
   S        0.04164         1.68568        -2.39991
   C       -1.21804         0.94605        -0.06080
   C       -1.02718         0.24351         1.14423
   C       -2.18164         0.22697         2.02022
   C       -3.24014         0.87615         1.54723
   S       -2.89251         1.58740        -0.07690
   O       -2.89767         3.01845        -0.01471
   O       -3.67754         0.94535        -1.08872
   H        0.64033        -0.87195         2.05897
   H       -2.14014        -0.28311         2.97054
   H       -4.19818         1.00039         2.01097
*
