# ORCA input file
# SCF done        -27.964668568767          0.000282198058
! B3LYP/G D3BJ Opt RIJCOSX def2-SVP def2/J
* xyz 0 1
   C        0.85750         1.51875        -0.00079
   S        2.29546         0.57609        -0.02497
   C        1.43218        -0.93696        -0.03728
   C        2.14348        -2.24422        -0.00762
   C        2.37097        -2.71493         1.43110
   C        0.09865        -0.68302        -0.01199
   C       -0.24408         0.71696         0.00414
   N       -1.58639         0.96839         0.01773
   C       -2.25477        -0.11141         0.01362
   S       -1.35854        -1.63357        -0.00743
   H        0.91117         2.58740         0.00712
   H        3.10489        -2.14717        -0.51509
   H        1.54039        -2.98377        -0.54032
   H        2.97897        -1.99398         1.97293
   H        2.88133        -3.67445         1.43469
   H        1.41983        -2.82467         1.94684
   H       -3.32706        -0.14382         0.02361
*
