25
 SCF done        -42.142737895983          0.000698744971
C          -1.63049785407133    1.20024769203114   -0.02466672907257
S          -2.76485396516769   -0.06355920824358    0.08247218557348
C          -1.53346711501706   -1.28161898263524    0.14701906347939
C          -0.27106823114113   -0.69814301978004    0.08463498210802
C          -0.33146610623310    0.73599290205126   -0.01243179685943
C           0.85804400985531    1.49317895577286   -0.07747220256009
C           2.06370266758096    0.84418460946317   -0.04865546032443
C           3.34872050389456    1.57547214153429   -0.10525060200568
O           4.43576079416403    1.04925136389506   -0.10443492907630
O           3.18499230802341    2.90917532339181   -0.15668808066986
C           4.37943684149572    3.67292315574560   -0.20618750317396
C           2.12368961392743   -0.57474388057765    0.04100731960715
C           0.99542768987288   -1.32948338823403    0.10671889224942
C          -1.85417284093861   -2.67384156757514    0.25608784186000
C          -3.08716758947842   -3.17384890271315    0.32285309240938
H          -1.96518256981451    2.21626869874903   -0.08948066701952
H           0.80630243743562    2.56814037936882   -0.14756110978372
H           4.07355170872662    4.71140903696204   -0.30546595174194
H           4.99087901077384    3.36828492914935   -1.05838370945979
H           4.95930720183019    3.53024507032848    0.70860183859477
H           3.10274130933314   -1.02827075318268    0.05508105845286
H           1.05679876846593   -2.40472680937511    0.17477889132156
H          -1.00100104377801   -3.33824839677431    0.28768051859069
H          -3.95647917156884   -2.53724903123246    0.29504100461316
H          -3.26329837817093   -4.23103031811955    0.40511205288740
