18
 SCF done        -30.421679659995          0.000823521643
C           0.17561903809475    1.23244752898854    0.13726002009385
S          -0.83683902508164   -0.17007156547590    0.19116450755235
C           0.55097272401885   -1.21510952106706    0.11504753885746
O           0.43243701290745   -2.54647184469026    0.12648671907429
C          -0.86962167152153   -3.08021427627635    0.20522685982824
C           1.72752803277224   -0.49946732009374    0.04984847511315
C           3.09626267487180   -1.02745017444937   -0.02670449724681
O           4.05293803367407   -0.28251341593357   -0.05221806948678
C           3.24441690640578   -2.52544252441646   -0.07085201698785
C           1.48013358456384    0.90728938012242    0.06499624656358
H          -0.28512350423221    2.19888056871516    0.16254932244483
H          -1.47038117533928   -2.77824382344393   -0.65814389555879
H          -1.37394392796516   -2.75203697436564    1.11953651462682
H          -0.75270444144235   -4.16204621206919    0.21514628188990
H           2.70754707806826   -2.92653197755480   -0.92722516239619
H           2.81571790265464   -2.96631432822855    0.82595705391126
H           4.29817446342946   -2.78277699210292   -0.14126376444799
H           2.28623629412129    1.61677347234207    0.02146786616883
