# ORCA input file
# SCF done        -30.421679659995          0.000823521643
! B3LYP/G D3BJ Opt RIJCOSX def2-SVP def2/J
* xyz 0 1
   C        0.17562         1.23245         0.13726
   S       -0.83684        -0.17007         0.19116
   C        0.55097        -1.21511         0.11505
   O        0.43244        -2.54647         0.12649
   C       -0.86962        -3.08021         0.20523
   C        1.72753        -0.49947         0.04985
   C        3.09626        -1.02745        -0.02670
   O        4.05294        -0.28251        -0.05222
   C        3.24442        -2.52544        -0.07085
   C        1.48013         0.90729         0.06500
   H       -0.28512         2.19888         0.16255
   H       -1.47038        -2.77824        -0.65814
   H       -1.37394        -2.75204         1.11954
   H       -0.75270        -4.16205         0.21515
   H        2.70755        -2.92653        -0.92723
   H        2.81572        -2.96631         0.82596
   H        4.29817        -2.78278        -0.14126
   H        2.28624         1.61677         0.02147
*
