28
 SCF done        -42.412921715237          0.000348942815
N           2.21087176536294    1.09612541634405    0.66928868888748
C           1.21317321314568    0.71898864635473   -0.31758987990384
C          -0.13468319533704    1.34870732321073    0.00475453896168
C          -1.27455325425786    0.70078946044462   -0.78054025281813
N          -2.51662321752216    1.31489539685247   -0.34594583311763
S          -3.05933702038561    0.36868133282514    0.97998100648978
N          -2.56206841221499   -1.11795305431872    0.26974126646815
C          -1.35624897527243   -0.84753139701328   -0.49947256678592
C          -0.13879599272730   -1.34089654782595    0.28335561599756
C           1.14165922655952   -0.83688616959623   -0.37983671269616
N           2.31570902500070   -1.32867142646625    0.31841714295777
S           3.46832141345714   -0.02525800526898    0.51776114517479
C           2.76060021382351   -2.61632008098243    0.13859638802686
C           4.00628146382641   -3.02527604251658    0.34462722882837
H           1.82520506175208    1.08367646701190    1.61080258601940
H           1.58164568649031    1.08752553904717   -1.28261198353583
H          -0.10873461391021    2.41428446571615   -0.22287545465123
H          -0.35644600670986    1.24810919863860    1.06889607924387
H          -1.13392492493454    0.88532700319976   -1.84983525999755
H          -3.21724654889449    1.35022681520234   -1.08058263449071
H          -3.30690890942254   -1.50992442561220   -0.29729132351315
H          -1.40814768689011   -1.38966858822599   -1.45052361253698
H          -0.15313333449364   -2.43105905387096    0.30684383044366
H          -0.19843474014426   -0.99321270032361    1.31466926746621
H           1.14563359916554   -1.15948357261910   -1.43341775169922
H           1.97865175694768   -3.30851703441014   -0.14643938929346
H           4.78362407916614   -2.33033234204919    0.61096365524584
H           4.27082032841987   -4.06254662374818    0.26758421482872
