# ORCA input file
# SCF done        -28.960565032206          0.000416410034
! B3LYP/G D3BJ Opt RIJCOSX def2-SVP def2/J
* xyz 0 1
   C       -1.52696         1.37532        -0.11088
   C       -0.26616         0.83082        -0.04123
   C       -0.29868        -0.60946        -0.07187
   N        0.81469        -1.37028        -0.01417
   C        1.95226        -0.74898         0.07095
   C        2.10257         0.66112         0.10575
   C        0.99886         1.45871         0.05068
   C       -1.59119        -1.11963        -0.16594
   S       -2.73687         0.17334        -0.21345
   C       -1.95099        -2.50374        -0.22141
   C       -3.19392        -2.97206        -0.31549
   H       -1.80315         2.41103        -0.10771
   H        2.83017        -1.38086         0.11523
   H        3.09354         1.08240         0.17549
   H        1.06580         2.53719         0.07473
   H       -1.10082        -3.17078        -0.18048
   H       -4.04419        -2.31067        -0.35511
   H       -3.39774        -4.02703        -0.35516
*
