13
 SCF done        -28.368974599806          0.000656998791
C          -1.12829922697985    0.03223933864705    0.13328769584038
O          -0.24226051605098    1.03735758120130    0.11214295337838
C           0.99631808591147    0.52709860418759   -0.07805571458826
C           0.89202147929929   -0.84406459867433   -0.17903382348545
C          -0.48096934691540   -1.15646126855544   -0.04171469491687
F          -1.03515903300287   -2.36679085576789   -0.07623547096574
F           1.88661074233524   -1.71163079328050   -0.36789777749550
C           2.11786303247200    1.43120900836902   -0.13775455091751
C           3.37762506618832    1.06086984934709   -0.34389819409094
H          -2.16340220555266    0.26602121905416    0.27424485868940
H           1.84981966300956    2.46919460731263    0.00037494059219
H           3.65480517223504    0.03097803992469   -0.48436892709257
H           4.17085708705084    1.78577926823464   -0.37820129494751
