24
 SCF done        -37.297439972709          0.000439671370
C          -2.81465592547132    0.41304440356704    0.00304257564246
C          -3.12325902895921   -0.90040540690672    0.00184957754982
S          -1.73809294865193   -1.93438081365687    0.00080213440968
C          -0.69385242738961   -0.54699085593596    0.00189069738761
C          -1.40841339835421    0.66390062158073    0.00312472956614
C          -0.72120565348056    1.90136024835799    0.00413170296405
C          -1.50143456476031    3.18600820291647    0.00602306686237
C           0.66088755489863    1.91205798162946    0.00348689963636
C           1.46653517648274    3.17913401451010    0.00405989156707
C           1.37369950560990    0.69188034699730    0.00218502475395
C           0.69220357026883   -0.53410481481184    0.00155700549110
S           1.77979236882105   -1.88864016705090    0.00030540091209
C           3.13471148470700   -0.81228646655880    0.00045608574106
C           2.78662924533202    0.49153512111372    0.00157822174647
H          -3.56982138775758    1.17799810731333    0.00372889875140
H          -4.09794831403700   -1.34767703176768    0.00148607061796
H          -2.56909969356689    2.99835072614217    0.00647118097855
H          -1.26382097242750    3.77860391276707   -0.87678738951768
H          -1.26275517134755    3.77649925607244    0.88997070813988
H           0.83945838231439    4.06301852730424    0.00619755989476
H           2.10556413829299    3.21330150321704   -0.87782067113206
H           2.10825730763942    3.21093782366094    0.88405481669858
H           4.12145417443545   -1.23234969639762   -0.00023652495063
H           3.50536657740125    1.29056445593635    0.00183233628901
