20
 SCF done        -40.984942459390          0.000628740253
C          -1.75320988486312   -1.35611075344912    0.22026219579793
S          -2.90309693254393   -0.13594473481983    0.54756037387526
C          -1.78531595911990    1.12406336038776    0.13257591731969
C          -0.57484604088646    0.58194094729782   -0.25051544487926
C          -0.55930199683456   -0.84013688970976   -0.19453924238736
S           0.76765998351399   -1.89362896946847   -0.70653562436484
C           2.21684803298016   -1.15369552334579    0.02938539030368
O           3.27762566999496   -1.67560790531518   -0.13198638178456
C           1.97907260191868    0.13223377549937    0.78220827702504
C           1.72614310579232    1.22644806212551   -0.24770130534471
O           2.57934067571488    1.94189577181306   -0.67823956777597
O           0.46039907901251    1.36811322801259   -0.68063856922843
C          -2.20841284509378    2.49937963809270    0.22258692120853
C          -1.50079897197522    3.55780753966533   -0.16205367020635
H          -2.00559452665596   -2.39099227144705    0.32890415356452
H           2.89151892300981    0.37940721990161    1.32695078714242
H           1.13167847995127    0.03995655014468    1.46384005407862
H          -3.19868584142922    2.62764614739821    0.64010464875916
H          -0.52173015364587    3.47065377884167   -0.59714573886297
H          -1.89745339884048    4.55199102837486   -0.05450317424042
