# ORCA input file
# SCF done        -40.984942459390          0.000628740253
! B3LYP/G D3BJ Opt RIJCOSX def2-SVP def2/J
* xyz 0 1
   C       -1.75321        -1.35611         0.22026
   S       -2.90310        -0.13594         0.54756
   C       -1.78532         1.12406         0.13258
   C       -0.57485         0.58194        -0.25052
   C       -0.55930        -0.84014        -0.19454
   S        0.76766        -1.89363        -0.70654
   C        2.21685        -1.15370         0.02939
   O        3.27763        -1.67561        -0.13199
   C        1.97907         0.13223         0.78221
   C        1.72614         1.22645        -0.24770
   O        2.57934         1.94190        -0.67824
   O        0.46040         1.36811        -0.68064
   C       -2.20841         2.49938         0.22259
   C       -1.50080         3.55781        -0.16205
   H       -2.00559        -2.39099         0.32890
   H        2.89152         0.37941         1.32695
   H        1.13168         0.03996         1.46384
   H       -3.19869         2.62765         0.64010
   H       -0.52173         3.47065        -0.59715
   H       -1.89745         4.55199        -0.05450
*
