16
 SCF done        -27.077933008487          0.000502777019
C          -1.20041393182058   -1.36315475079350    0.14367921581588
S          -2.43970573508853   -0.16780208462192    0.09671970954196
C          -1.32916505858770    1.16181453991804   -0.08185097704913
C          -0.03464903623495    0.67043448099005   -0.10283446339991
C           0.01810792387203   -0.75887776920542    0.02553984300399
N           1.33616596439070   -1.09444033961166   -0.01149090554975
N           2.10967006737356    0.00005248572289   -0.15164645198150
C           1.33349178394517    1.04745312436504   -0.20762704252876
C          -1.84346434889809    2.49429036277227   -0.17823192151812
C          -1.10366148501264    3.59422365487692   -0.31789702491993
H          -1.45275018496393   -2.39740888036071    0.25141921749990
H           1.75953812244824   -2.00359928940377    0.04913951444772
H           1.76126603981416    2.02285446395006   -0.31844814997635
H          -2.92250085062461    2.57012687529261   -0.13013434344684
H          -0.02999503480936    3.55502799453840   -0.36866611519415
H          -1.55767423580341    4.56684513157072   -0.38425010474499
