19
 SCF done        -30.279406903870          0.000218312789
C          -1.11359264133106   -1.25159620720752   -0.11535341624904
C           0.15365263983388   -0.72528052279242   -0.05660799170804
C           0.14036449718442    0.71756048420083    0.04385069904729
N           1.29784638592794    1.42184291370931    0.11460402218110
C           2.38688802989385    0.71721523899210    0.08783113296830
C           2.41234559602012   -0.71150767973811   -0.01628042954287
C           3.72127087688439   -1.43831652538895   -0.01645463186036
C           4.28592424004103   -1.52293132715272    1.40303913487849
N           1.31867934355000   -1.41676792593613   -0.08792077708915
C          -1.13530587111164    1.22638488659702    0.05421419478703
S          -2.29613204303057   -0.02071799768591   -0.05209259739948
H          -1.40006633395084   -2.28039999423353   -0.18966209493687
H           3.31660914459697    1.26934872918554    0.14036922501156
H           4.42974811571295   -0.91330198032116   -0.66112496283215
H           3.56003129052087   -2.44362399688549   -0.40645474161234
H           4.43992615965503   -0.52890659843660    1.81786880940415
H           5.23821612772921   -2.04740775396345    1.39633492518948
H           3.59636127627643   -2.06297148308857    2.04754044856420
H          -1.43865683440301    2.25111774014581    0.11877905119866
