21
 SCF done        -31.664542714277          0.000586148960
C           1.46857226337863    1.20280868200318   -0.23303994035735
S           2.69491092290989   -0.00105011622978   -0.17106106182155
C           1.51126703150155   -1.23122483868063    0.03296284066771
C           0.24634700177954   -0.73596410651957    0.05269088561548
C           0.22194521137079    0.67871826210239   -0.10301819267284
C          -1.05619127484693    1.45617410986128   -0.15105641119448
C          -2.19380854082112    0.65721658508045    0.48245890412373
C          -2.24503161754569   -0.75291805708962   -0.11409230448011
C          -2.45493913822626   -0.69072548922182   -1.60653905753144
O          -1.90010961896260   -1.36603166852748   -2.42460176308371
C          -0.99298154153987   -1.55358775094103    0.24933232091499
H           1.74416845146904    2.23005146125455   -0.36593592215040
H           1.82373046819316   -2.25200551681731    0.12723261033436
H          -1.29986091760909    1.66868631277235   -1.19767624374089
H          -0.93339330476381    2.41477005001076    0.35755174957768
H          -3.14351505650645    1.17048101364427    0.31724930706222
H          -2.03327101111426    0.57947254396466    1.55984352738860
H          -3.13019812930816   -1.27098969494454    0.27942492518576
H          -3.22673782464088    0.04972793383462   -1.90412711812742
H          -0.94291372674092   -2.45173830358261   -0.37028834105859
H          -1.05290964797662   -1.87086141197405    1.29496928534828
