# ORCA input file
# SCF done        -31.664542714277          0.000586148960
! B3LYP/G D3BJ Opt RIJCOSX def2-SVP def2/J
* xyz 0 1
   C        1.46857         1.20281        -0.23304
   S        2.69491        -0.00105        -0.17106
   C        1.51127        -1.23122         0.03296
   C        0.24635        -0.73596         0.05269
   C        0.22195         0.67872        -0.10302
   C       -1.05619         1.45617        -0.15106
   C       -2.19381         0.65722         0.48246
   C       -2.24503        -0.75292        -0.11409
   C       -2.45494        -0.69073        -1.60654
   O       -1.90011        -1.36603        -2.42460
   C       -0.99298        -1.55359         0.24933
   H        1.74417         2.23005        -0.36594
   H        1.82373        -2.25201         0.12723
   H       -1.29986         1.66869        -1.19768
   H       -0.93339         2.41477         0.35755
   H       -3.14352         1.17048         0.31725
   H       -2.03327         0.57947         1.55984
   H       -3.13020        -1.27099         0.27942
   H       -3.22674         0.04973        -1.90413
   H       -0.94291        -2.45174        -0.37029
   H       -1.05291        -1.87086         1.29497
*
