16
 SCF done        -31.001750879024          0.000462514267
C          -1.26156966456950    0.26723346713398   -0.03256635429203
S          -0.42456613255460   -0.34766484650838    1.35629991089884
C          -0.62484414534298    0.00994426329234   -1.20781930226606
C           0.57130226682733   -0.70172432311989   -0.99789977999263
C           1.65978117013453   -1.25473558336520   -1.78940973511930
S           1.83267857380083   -1.20463113098137   -3.41403229250703
C           0.80830230201012   -0.96526755901283    0.35144593253713
C           2.04122814337638   -1.68450019866898    0.46045478301645
S           3.04073149870944   -2.36769513313972    1.66272017061743
C           2.56077362863377   -1.86256049853724   -0.82199798514729
C           3.78266178314481   -2.56131230972620   -0.81813863805529
C           4.15916216749108   -2.89491810724599    0.44671074694503
H          -2.18593182604065    0.78786431818099    0.11901867972116
H          -0.99138714483362    0.31330703239537   -2.17115499902798
H           4.34848564980773   -2.80258221132036   -1.69905402860515
H           5.03675172940536   -3.42568717937651    0.75759289127670
