12
 SCF done        -29.300058252184          0.000886572462
C          -1.30967912015697   -1.22992485454493   -0.00062599001892
S          -2.48300537398207    0.03229824580556   -0.00038462800831
C          -1.28073209087413    1.26699056045398   -0.00132198793345
C          -0.03920318959617    0.71565095214564    0.00205425202077
C          -0.05570670933435   -0.70744710353854    0.00246580096042
C           1.34241015014649   -1.16340865347416    0.00587237804304
O           1.80882475690554   -2.25840501204209    0.00645965017963
O           2.12190042437836   -0.02110115535874    0.00660653829279
C           1.36917911882944    1.13897460996594    0.00524528639647
O           1.86089848017407    2.22283286906092    0.00536174795534
H          -1.61663328436347   -2.25671311652074   -0.00114939221322
H          -1.56390316212673    2.30059265804716   -0.00242365567455
