16
 SCF done        -28.276314940911          0.000487705802
C          -2.04335105177641   -0.03112001194691    0.06419002042180
O          -1.30904106472491    1.10281360622358    0.19367386185923
C          -0.02649249859719    0.71229940393034    0.08623040021097
C           1.29391642865325    1.19521962587539    0.10043769358509
C           2.07927303339361    0.07425368239776   -0.09012896019279
O           1.32396585296200   -1.06122929853320   -0.21938900792473
C           0.04722209106797   -0.66494757275421   -0.11085978999264
C          -1.27855139414135   -1.14832496436420   -0.12453316023463
C           3.51307141400335   -0.01424663045824   -0.16301727450991
C           4.18688146638446   -1.14424606823337   -0.36243969160397
H          -3.10762294819112    0.08069899777389    0.12337966161735
H           1.63914315701846    2.19973273379503    0.22785924563205
H          -1.62484929224117   -2.15217329727420   -0.25143977264164
H           4.02567996789506    0.92961775237422   -0.04205054093405
H           3.67566636717240   -2.08358034184416   -0.48385020177554
H           5.26111847112158   -1.16025761696173   -0.41004248351658
