# ORCA input file
# SCF done        -29.383528358884          0.000270404898
! B3LYP/G D3BJ Opt RIJCOSX def2-SVP def2/J
* xyz 0 1
   C        0.12308         1.19489        -0.12019
   S       -1.06870        -0.02980        -0.21838
   C        0.14080        -1.27581        -0.05719
   C       -0.24458        -2.69238        -0.06429
   O        0.53983        -3.59900         0.04456
   O       -1.55827        -2.95575        -0.20168
   C        1.41003        -0.73045         0.06700
   C        1.37100         0.69017         0.02742
   C        2.61721        -1.51766         0.21646
   C        3.83984        -1.01437         0.35742
   H       -0.17998         2.22184        -0.17871
   H       -2.10585        -2.16359        -0.28159
   H        2.24333         1.31199         0.10516
   H        2.46719        -2.58678         0.20953
   H        4.04447         0.04305         0.37437
   H        4.69314        -1.66128         0.46319
*
