16
 SCF done        -29.383528358884          0.000270404898
C           0.12308407028389    1.19488543584634   -0.12019432220969
S          -1.06870439449119   -0.02980386230584   -0.21837996478774
C           0.14079776239203   -1.27581290569232   -0.05719308517434
C          -0.24458118320646   -2.69237585194104   -0.06428590605398
O           0.53983325293193   -3.59900343840464    0.04456426792279
O          -1.55826541313071   -2.95574729152935   -0.20168284519415
C           1.41003198436402   -0.73045049505432    0.06699696966608
C           1.37100248888608    0.69017474016580    0.02742162102766
C           2.61720545904931   -1.51765579787771    0.21645703863735
C           3.83984370283611   -1.01437251625528    0.35741578337158
H          -0.17997515119007    2.22183902128341   -0.17870959477188
H          -2.10584704864767   -2.16358756792542   -0.28159023173228
H           2.24333303841763    1.31199169848221    0.10516039920133
H           2.46718658067589   -2.58677587527704    0.20952980861965
H           4.04447194044982    0.04304695664391    0.37436843376495
H           4.69314291037939   -1.66128225015869    0.46319162771267
