14
 SCF done        -26.060125150896          0.000923950567
C          -1.19148000514299   -1.26052099113453   -0.00292146421436
S          -2.38593645653979   -0.01446847695903   -0.00255835752146
C          -1.22331359530954    1.24869395911507   -0.00049180256519
C           0.04750755270069    0.73838553448723   -0.00023719688444
C           0.05085814548954   -0.70340678499329   -0.00162936098139
N           1.35011432993590   -1.12156606903703   -0.00118310509572
C           2.16191723613818    0.00135585010489    0.00057134731293
C           3.55879057741849   -0.10661890442278    0.00181160784830
N           4.70367041281044   -0.19495327935377    0.00242943997260
C           1.40781498972520    1.14983328959793    0.00109328035498
H          -1.48952939624564   -2.28815806553878   -0.00407459937501
H          -1.54839815766130    2.26842213897737    0.00031135135314
H           1.67734223914884   -2.07147138672643   -0.00172112581829
H           1.78473212753197    2.15265318588314    0.00232998561392
