# ORCA input file
# SCF done        -26.060125150896          0.000923950567
! B3LYP/G D3BJ Opt RIJCOSX def2-SVP def2/J
* xyz 0 1
   C       -1.19148        -1.26052        -0.00292
   S       -2.38594        -0.01447        -0.00256
   C       -1.22331         1.24869        -0.00049
   C        0.04751         0.73839        -0.00024
   C        0.05086        -0.70341        -0.00163
   N        1.35011        -1.12157        -0.00118
   C        2.16192         0.00136         0.00057
   C        3.55879        -0.10662         0.00181
   N        4.70367        -0.19495         0.00243
   C        1.40781         1.14983         0.00109
   H       -1.48953        -2.28816        -0.00407
   H       -1.54840         2.26842         0.00031
   H        1.67734        -2.07147        -0.00172
   H        1.78473         2.15265         0.00233
*
