# ORCA input file
# SCF done        -40.482585486003          0.000360680499
! B3LYP/G D3BJ Opt RIJCOSX def2-SVP def2/J
* xyz 0 1
   C        0.11842         0.98448        -1.09225
   C       -0.79030         0.01694        -1.24279
   C       -0.75359        -1.02344        -0.26063
   S        0.52639        -0.71043         0.90994
   C        1.03222         0.83246         0.07149
   C       -1.55847        -2.12032        -0.19126
   C       -1.53102        -3.16158         0.77454
   C       -2.45298        -4.13347         0.57623
   C       -3.27900        -3.93553        -0.56239
   S       -2.82975        -2.43416        -1.37489
   C       -4.27693        -4.74134        -1.02125
   S       -4.72231        -6.24797        -0.22252
   C       -6.02040        -6.61637        -1.45482
   C       -6.00471        -5.48230        -2.41738
   C       -5.09878        -4.53105        -2.17398
   H        0.22913         1.83732        -1.73874
   H       -1.52269        -0.02369        -2.03151
   H        2.07851         0.73894        -0.22849
   H        0.94932         1.65870         0.78118
   H       -0.81695        -3.13656         1.57929
   H       -2.58607        -5.00101         1.19909
   H       -6.97699        -6.71397        -0.93669
   H       -5.78686        -7.57174        -1.93106
   H       -6.69944        -5.48123        -3.23908
   H       -4.95612        -3.64757        -2.77340
*
