25
 SCF done        -40.482585486003          0.000360680499
C           0.11842350245216    0.98448177373522   -1.09224659993008
C          -0.79030254482376    0.01693710945075   -1.24279228481197
C          -0.75358742385929   -1.02344494514455   -0.26062558087080
S           0.52639117987334   -0.71042970011978    0.90993877250851
C           1.03222375349728    0.83246275793846    0.07149202212120
C          -1.55847214110321   -2.12031550762652   -0.19126177805402
C          -1.53102309654265   -3.16158355221831    0.77454219439983
C          -2.45298431892001   -4.13347295714091    0.57622900448514
C          -3.27899914098639   -3.93552924546588   -0.56239250556307
S          -2.82975106859520   -2.43416426820753   -1.37489068260836
C          -4.27693421988571   -4.74133568164425   -1.02125253105396
S          -4.72230875779845   -6.24797187753646   -0.22252351247330
C          -6.02039855240917   -6.61636587472699   -1.45481766505406
C          -6.00470736399733   -5.48229595576635   -2.41737972877177
C          -5.09878025701279   -4.53105193795163   -2.17397874700700
H           0.22913113252975    1.83732171973761   -1.73873646725183
H          -1.52268956646267   -0.02368769907338   -2.03150679830080
H           2.07851039395787    0.73893705732794   -0.22848888465194
H           0.94931962767296    1.65869565387037    0.78117559362782
H          -0.81694512737184   -3.13655519126486    1.57928610660367
H          -2.58607198274402   -5.00100639246752    1.19908655622273
H          -6.97698764135979   -6.71397377083151   -0.93669061099557
H          -5.78686128631977   -7.57173982848327   -1.93106495571266
H          -6.69943586408220   -5.48123082563794   -3.23907961355425
H          -4.95611923570899   -3.64757086075356   -2.77340130330450
