# ORCA input file
# SCF done        -29.567753454189          0.000644849575
! B3LYP/G D3BJ Opt RIJCOSX def2-SVP def2/J
* xyz 0 1
   C        1.30185        -1.24367         0.30156
   S        2.50890        -0.00293         0.15299
   C        1.31408         1.20800        -0.17118
   C        0.07198         0.67391        -0.16321
   C        0.06117        -0.73503         0.10790
   C       -1.31048        -1.18071         0.08400
   C       -2.13699        -0.13475        -0.18474
   C       -1.32554         1.12026        -0.35801
   O       -1.71553         2.23735        -0.59839
   C       -3.57184        -0.21299        -0.29028
   C       -4.37493         0.81411        -0.55968
   H        1.60727        -2.24756         0.51912
   H        1.62047         2.22052        -0.34368
   H       -1.61915        -2.19742         0.25501
   H       -3.98569        -1.20245        -0.13215
   H       -3.98840         1.80448        -0.72038
   H       -5.44217         0.68771        -0.62618
*
