15
 SCF done        -23.322206061811          0.000878428220
C          -1.21776964492566   -0.08038414396557   -0.16977352103657
S          -0.44564124009999    1.43005581235947   -0.43758342808430
C           1.11355386233061    0.72234272904508   -0.09613380956393
C           0.99343673684126   -0.61086382348081    0.20150192590006
C          -0.33788121961151   -1.06332427456809    0.15836241065647
C           2.27277797584478    1.49018825281847   -0.14542343746675
C           3.26398096954915    2.18341026801939   -0.19945352863083
C           4.43454012151254    2.95485358565134   -0.25735160498741
C           4.45239556503983    4.23086874855012   -0.63472377009271
H          -2.28274694251300   -0.14814584961967   -0.27195406662912
H           1.83748281269205   -1.23246741953024    0.44119503841725
H          -0.62956664903683   -2.07804472734168    0.36284467641465
H           5.34539932751914    2.44285592783090    0.02929109819913
H           3.55144196167963    4.74378387992681   -0.92541850377112
H           5.36867636317818    4.79428103430476   -0.66940947932428
