# ORCA input file
# SCF done        -26.420520651346          0.000582801650
! B3LYP/G D3BJ Opt RIJCOSX def2-SVP def2/J
* xyz 0 1
   N        0.04051         0.85233         0.14384
   C       -1.11681         0.18204        -0.23680
   O       -2.16725         0.70633        -0.49521
   C       -0.74515        -1.24599        -0.23985
   C        0.54616        -1.38213         0.11871
   C        1.09452        -0.00207         0.37797
   O        2.19819         0.33624         0.71452
   C        1.29802        -2.60365         0.24299
   C        2.56935        -2.66605         0.63588
   H        0.10382         1.85523         0.23549
   H       -1.44435        -2.01967        -0.49680
   H        0.75059        -3.50414        -0.00747
   H        3.12405        -1.77870         0.88751
   H        3.08529        -3.60768         0.71333
*
