14
 SCF done        -26.420520651346          0.000582801650
N           0.04051313316592    0.85232591265007    0.14383579471193
C          -1.11681498076135    0.18203921278927   -0.23679732481494
O          -2.16725026350185    0.70632937915038   -0.49520876214873
C          -0.74514827204111   -1.24598583386316   -0.23984798029061
C           0.54615565635729   -1.38213464957321    0.11871441839035
C           1.09451945300412   -0.00206610683677    0.37797086012391
O           2.19818934047436    0.33624297280753    0.71451647381748
C           1.29802292230855   -2.60365320599146    0.24299127444654
C           2.56935261880033   -2.66605104842136    0.63588033661890
H           0.10382083545605    1.85523342116626    0.23549431752091
H          -1.44434555417208   -2.01966665598216   -0.49679820723487
H           0.75059332050293   -3.50414380412421   -0.00747210639404
H           3.12404820372398   -1.77870455545270    0.88751119828249
H           3.08529358668285   -3.60767503831848    0.71332970697067
