25
 SCF done        -44.618023331147          0.000441801743
C           2.54141363314414    1.19377178951431   -0.00123033222282
S           3.69341780220428   -0.06491361969897   -0.00656965753168
C           2.48440024744809   -1.26893953007242   -0.00609938919361
C           1.21858006587655   -0.73139472370780   -0.00342873738655
C           1.25207555222212    0.71536304864516   -0.00054209261293
C           0.04420344946296    1.46214355940878    0.00395405180209
C          -1.11921898286384    0.76114997268781    0.00520984644004
C          -2.51706304958819    1.24037095483571    0.01410617324272
O          -2.94218344147027    2.36914641407841    0.02201055624790
N          -3.30367323564118    0.09701686738398    0.02253721634052
C          -4.74975850277415    0.13078299882386    0.00301139717881
C          -5.28255936188101    0.15984344942784   -1.42522272230281
C          -2.57084088705549   -1.08147688630198    0.00902770578810
O          -3.04776990861461   -2.18938543469545    0.01193795412038
C          -1.15230618821410   -0.66744065740123    0.00220115550660
C          -0.02256156657734   -1.42150452952126   -0.00195102613935
H           2.86365817490877    2.21569682662511    0.00049218105756
H           2.75903225771159   -2.30467514748553   -0.00842657592619
H           0.06157021799049    2.54057084918192    0.00757301037647
H          -5.06305612227762    1.02723774903863    0.54375911904168
H          -5.10373834142851   -0.76269866223145    0.52311137732613
H          -4.91667934267244    1.04311879105707   -1.94379778718861
H          -6.36852153575001    0.18586982300764   -1.41241004619962
H          -4.95930214967367   -0.72777834466687   -1.96431893017015
H          -0.05508878448657   -2.49958555793323   -0.00275444759468
