20
 SCF done        -27.586402014987          0.000386002878
C          -0.80736681941132    1.22487223245241   -0.18552002257277
S          -1.97053065797398   -0.04959038988628   -0.26905105910125
C          -0.74020611995457   -1.28182528169513   -0.04984050956651
C           0.48376643356890   -0.68605397239241    0.06584634527389
C           0.43954560770898    0.72977995522742   -0.00820380697955
C           1.80804819012259    1.31085110130579    0.14008505818342
C           2.71742484239093    0.09818880732476   -0.13323790962415
C           1.89361936613919   -1.15071149348113    0.23961514368736
C          -1.14498287991522   -2.66203158618227   -0.02087977803150
C          -0.36604965812506   -3.68987712494841    0.30523686228208
H          -1.13553204428054    2.24103470982410   -0.27550950226620
H           1.94442448122800    1.67902496311163    1.16076135495267
H           1.99778541919026    2.13691527366227   -0.54469049768568
H           3.65367112375514    0.15261091788061    0.42040857757435
H           2.95507991007355    0.06313626044784   -1.19756727035331
H           2.06772424205838   -1.43720236197579    1.28085731645386
H           2.13826032072858   -2.00350853585121   -0.39403656020657
H          -2.18169888728638   -2.83459223802051   -0.28039037667185
H           0.66224115282430   -3.56285666477534    0.59178428786044
H          -0.74378402284171   -4.69729457202838    0.30037234679128
