# ORCA input file
# SCF done        -27.586402014987          0.000386002878
! B3LYP/G D3BJ Opt RIJCOSX def2-SVP def2/J
* xyz 0 1
   C       -0.80737         1.22487        -0.18552
   S       -1.97053        -0.04959        -0.26905
   C       -0.74021        -1.28183        -0.04984
   C        0.48377        -0.68605         0.06585
   C        0.43955         0.72978        -0.00820
   C        1.80805         1.31085         0.14009
   C        2.71742         0.09819        -0.13324
   C        1.89362        -1.15071         0.23962
   C       -1.14498        -2.66203        -0.02088
   C       -0.36605        -3.68988         0.30524
   H       -1.13553         2.24103        -0.27551
   H        1.94442         1.67902         1.16076
   H        1.99779         2.13692        -0.54469
   H        3.65367         0.15261         0.42041
   H        2.95508         0.06314        -1.19757
   H        2.06772        -1.43720         1.28086
   H        2.13826        -2.00351        -0.39404
   H       -2.18170        -2.83459        -0.28039
   H        0.66224        -3.56286         0.59178
   H       -0.74378        -4.69729         0.30037
*
