21
 SCF done        -32.117325041418          0.000848323221
C          -1.43100717475664   -1.27368148457053    0.15101391461141
S          -2.65747640001605   -0.08496331097913    0.26734837525029
C          -1.52318971627726    1.18759484797153    0.19593080924095
C          -0.23590677450155    0.72037722256906    0.08252113536945
C          -0.17719828079087   -0.71762571317534    0.04918187596053
C           1.07739017456678   -1.38938046371999   -0.05163171962204
C           2.22249208970463   -0.61983742086509   -0.15155563062718
C           2.14452534054815    0.80489277365177   -0.11167124776218
C           0.96657205588935    1.46496771407094    0.00668523561756
N           3.45653652038797   -1.17037440665135   -0.40536831234520
C           1.08012444721365   -2.85305248263682   -0.07136536346643
C           1.87729366801135   -3.64124102347914    0.63859372728710
H          -1.70722140540931   -2.30813052908099    0.16909192183555
H          -1.85542786717428    2.20531069644185    0.24265002092014
H           3.07200130536364    1.35555403559998   -0.18503554911875
H           0.92597309835520    2.54325947734876    0.04005795659544
H           3.54849425718841   -2.16683005232363   -0.31938455856246
H           4.26945325618834   -0.61887333221135   -0.19790775479846
H           0.32395550973821   -3.30263084760175   -0.70456936155633
H           2.60237745222377   -3.25205718486499    1.33536579657246
H           1.80976844354657   -4.71447851549372    0.57904872859810
