# ORCA input file
# SCF done        -37.743849475381          0.000523887636
! B3LYP/G D3BJ Opt RIJCOSX def2-SVP def2/J
* xyz 0 1
   C       -3.07445         0.11510         0.00364
   N       -2.38365        -1.06040        -0.13461
   C       -1.06502        -0.73035        -0.06671
   N       -0.00248        -1.52242        -0.14776
   C        1.10409        -0.80144        -0.03161
   N        2.39687        -1.21187        -0.05636
   C        3.17464        -0.08059         0.11013
   N        2.46341         1.00782         0.23521
   C        1.16105         0.62455         0.15509
   N        0.08279         1.38929         0.23097
   C       -1.03672         0.69270         0.11742
   N       -2.32463         1.15674         0.15221
   C        4.61377        -0.15006         0.13780
   C        5.37696         0.92347         0.31790
   H       -4.14677         0.14714        -0.01249
   H       -2.75974        -1.98527        -0.25982
   H        2.71895        -2.15848        -0.17133
   H        5.04169        -1.13518         0.00489
   H        4.92221         1.88948         0.44978
   H        6.45067         0.86103         0.33980
*
