26
 SCF done        -48.552890567244          0.000488139292
C           1.82187236866577    1.13181437038232    0.71487028882674
S           2.72887288056211   -0.32266808636825    0.66214466216397
C           1.32609013090754   -1.21835238935398    0.23506657645532
C           0.21886812523556   -0.43446633368153    0.14074008216493
C           0.50864554662282    0.93079888583980    0.42020231494466
C          -0.55198222488445    1.99553733426640    0.44507809869000
C          -0.73600551028999    2.46765160143843    1.88772052493594
F           0.35131977794894    3.11476791309267    2.34168037458116
F          -1.75737689071188    3.33020898912282    2.01846555107339
F          -0.96784078106433    1.47452918555970    2.75682568258456
C          -1.87169294040995    1.49267737448956   -0.15373188872872
C          -2.20026077121291    0.06612364289799    0.28021291941521
C          -1.14985721991269   -0.89475676708291   -0.27815613004471
O          -1.29544768287336   -0.88531015520709   -1.69274829578097
C          -0.56036118325419   -1.86902813222599   -2.36932202008652
H           2.30951277972685    2.05152221621681    0.96966789405108
H           1.40103652713769   -2.27851236985035    0.09493537398475
H          -0.21169490399374    2.88323260909448   -0.10157733303470
H          -1.77948942147662    1.49667814386855   -1.24034165259355
H          -2.68084172711125    2.16886092015564    0.12601870211392
H          -3.17400139906304   -0.21339567745850   -0.12148515612701
H          -2.22998379600780   -0.02240302768840    1.36580939377397
H          -1.32524731557411   -1.91831964543181    0.09396299533869
H          -0.83768774479667   -1.78577663757429   -3.41829817754885
H          -0.81057746950124   -2.87299459345786   -2.00381483312704
H           0.51986084533099   -1.71369937104429   -2.26728594802616
