# ORCA input file
# SCF done        -36.679301947014          0.000466280399
! B3LYP/G D3BJ Opt RIJCOSX def2-SVP def2/J
* xyz 0 1
   C       -0.25089         1.03302        -0.22270
   O       -1.09618         0.02271        -0.33615
   C       -0.40786        -1.12140        -0.14636
   C        0.89911        -0.85868         0.09502
   C        1.02082         0.56632         0.04673
   C        2.24548         1.30940         0.24438
   O        3.32993         0.85093         0.48689
   C        2.06703         2.85342         0.11234
   F        1.17509         3.32436         1.00228
   F        3.20349         3.51307         0.30155
   F        1.60310         3.19019        -1.10459
   H       -0.63912         2.02564        -0.34585
   H       -0.95659        -2.03978        -0.20831
   H        1.69438        -1.54830         0.28326
*
