13
 SCF done        -24.576330688383          0.000919293214
C           1.15944519252082    0.00736505155494   -0.19965066918361
S           1.77678367184413    1.63733297605245   -0.37315620023540
C           2.82608674921411    1.82217395404270    1.03088003789153
C           3.48801052398476    2.98898385840095    1.25267104742943
S           4.44959371130460    2.94163583345846    2.67705209823700
C           3.95267287504453    1.32453514717947    2.98301816249334
C           3.09575090242934    0.85412503308905    2.03764582617357
S           2.45172548832006   -0.78325874858355    2.14339864076981
C           1.41114026792111   -0.89525723820835    0.73845135343166
H           0.48506622752368   -0.22165700745598   -1.00878361798163
H           3.45733420681889    3.87353169312663    0.65006746642601
H           4.31532790473978    0.80109288367908    3.84384136923167
H           0.94380227833416   -1.86594343633591    0.69950448531661
