# ORCA input file
# SCF done        -42.570700663928          0.000544085250
! B3LYP/G D3BJ Opt RIJCOSX def2-SVP def2/J
* xyz 0 1
   C       -2.86917         0.27691         0.16781
   C       -3.07826        -1.05554         0.13556
   S       -1.62517        -1.98041        -0.02091
   C       -0.68863        -0.51764        -0.04085
   C       -1.48923         0.63027         0.06582
   C       -0.89289         1.90836         0.01080
   C       -1.76552         3.12829         0.07793
   C        0.47877         2.03062        -0.13515
   C        1.07701         3.38872        -0.35850
   C        1.29508         0.87374        -0.13430
   C        0.68805        -0.39530        -0.13891
   S        1.83177        -1.69155        -0.29828
   C        3.12120        -0.54860        -0.31813
   C        2.72908         0.74637        -0.19322
   C        3.74288         1.79064        -0.01560
   C        3.79058         2.59440         1.03545
   H       -3.67232         0.98613         0.25290
   H       -4.01387        -1.57682         0.19182
   H       -2.71977         2.89609         0.53977
   H       -1.95938         3.51499        -0.92353
   H       -1.28902         3.91394         0.65919
   H        0.42077         3.98692        -0.98656
   H        2.04065         3.30727        -0.85022
   H        1.22047         3.91893         0.58313
   H        4.12959        -0.91108        -0.37501
   H        4.53079         1.81147        -0.75931
   H        3.03722         2.55987         1.80493
   H        4.57845         3.31720         1.16231
*
