16
 SCF done        -27.450619813488          0.000399833353
C          -1.17574203403949   -1.34707232828549    0.15445052135191
S          -2.42734095039292   -0.16644371491884    0.08487919086661
C          -1.32040696701907    1.17644610185728   -0.07660824148864
C          -0.02676749723294    0.69567343293262   -0.07535581589544
C           0.03174369242101   -0.72777156418970    0.05574126519928
O           1.31465155700942   -1.15884034386064    0.05278116037159
C           2.07326274953205   -0.03423591766908   -0.07790669847858
C           1.34320970152021    1.10138956722581   -0.15975362977309
C          -1.85053127816431    2.50396078236480   -0.18104050466817
C          -1.12757334492417    3.61575819338595   -0.30707973998382
H          -1.41144292118491   -2.38533055915599    0.25944980901508
H           3.13547487690397   -0.18572583576082   -0.09909927818837
H           1.73012881886288    2.09323503938105   -0.26547791165770
H          -2.93088942470439    2.56255179336496   -0.14959622826980
H          -0.05303678243458    3.59682530111505   -0.34152814795224
H          -1.59710019615269    4.58055005221311   -0.37908575044871
