# ORCA input file
# SCF done        -24.425306794709          0.000222056738
! B3LYP/G D3BJ Opt RIJCOSX def2-SVP def2/J
* xyz 0 1
   C        2.16781         0.65952        -0.08524
   C        2.16061        -0.66204        -0.08506
   C        0.93714        -1.50955         0.08017
   C       -0.31901        -0.69887         0.04552
   C       -1.57916        -1.20535         0.00620
   S       -2.78036         0.02572        -0.02958
   C       -1.56580         1.24361         0.00578
   C       -0.31125         0.72342         0.04531
   C        0.95368         1.52035         0.07991
   H        3.09908         1.19750        -0.20005
   H        3.08595        -1.21018        -0.19971
   H        1.00348        -2.04902         1.03357
   H        0.91057        -2.27210        -0.70582
   H       -1.88083        -2.23402        -0.00522
   H       -1.85620         2.27552        -0.00601
   H        1.02588         2.05904         1.03332
   H        0.93543         2.28315        -0.70606
*
