# ORCA input file
# SCF done        -31.560558680644          0.000320868933
! B3LYP/G D3BJ Opt RIJCOSX def2-SVP def2/J
* xyz 0 1
   C       -1.19794         1.35857        -0.17574
   C       -2.31317         0.56638        -0.09879
   N       -2.27785        -0.75417         0.08715
   C       -1.13061        -1.39058         0.21290
   C        0.10983        -0.67763         0.14814
   C        0.05637         0.73177        -0.05200
   N        1.18838         1.46728        -0.12476
   C        2.32085         0.83352        -0.00404
   C        2.37710        -0.56174         0.19363
   N        1.30063        -1.29615         0.26689
   C       -1.25997        -2.82513         0.41219
   C       -0.27749        -3.69981         0.60071
   H       -1.24597         2.42456        -0.32550
   H       -3.30804         0.98338        -0.18681
   H        3.22204         1.42952        -0.06432
   H        3.32308        -1.07800         0.29150
   H       -2.29310        -3.14827         0.40141
   H        0.75443        -3.39820         0.61828
   H       -0.49165        -4.74622         0.74246
*
