# ORCA input file
# SCF done        -28.098080808648          0.000500619281
! B3LYP/G D3BJ Opt RIJCOSX def2-SVP def2/J
* xyz 0 1
   C       -0.33077         0.98691        -0.07111
   O       -1.09144        -0.10516        -0.03844
   C       -0.26850        -1.16754         0.05466
   C        1.02899        -0.77083         0.08282
   C        0.99758         0.65179         0.00071
   C        2.12344         1.58993        -0.01141
   O        2.01673         2.78844        -0.10185
   O        3.30011         0.95362         0.09581
   C        4.45546         1.77764         0.08995
   H       -0.80826         1.94360        -0.14396
   H       -0.72276        -2.13769         0.09164
   H        1.90319        -1.38281         0.15160
   H        5.28542         1.14408         0.39293
   H        4.33092         2.61093         0.78449
   H        4.62834         2.17806        -0.91145
*
