# ORCA input file
# SCF done        -41.330617452028          0.000313754525
! B3LYP/G D3BJ Opt RIJCOSX def2-SVP def2/J
* xyz 0 1
   C        1.58125         1.16455         0.08973
   S        2.68741        -0.12104         0.35847
   C        1.40598        -1.26513         0.33134
   C        0.19531        -0.68354         0.12515
   C        0.29816         0.72861        -0.01654
   C       -0.88369         1.60790        -0.29338
   C       -2.20309         0.89358         0.01984
   C       -2.47856         0.92761         1.51856
   F       -2.78618         2.17631         1.91928
   F       -3.52801         0.15927         1.86020
   F       -1.45915         0.53716         2.29196
   C       -2.20233        -0.53322        -0.53912
   C       -1.11776        -1.40177         0.09637
   H        1.94445         2.17070         0.02397
   H        1.62247        -2.30468         0.47565
   H       -0.88446         1.88180        -1.35274
   H       -0.80887         2.53341         0.28272
   H       -3.03325         1.45287        -0.42712
   H       -2.02884        -0.46249        -1.61471
   H       -3.18001        -0.99221        -0.38266
   H       -1.02266        -2.33685        -0.45938
   H       -1.40206        -1.66386         1.11970
*
