22
 SCF done        -41.330617452028          0.000313754525
C           1.58124810046042    1.16455353087828    0.08972561485586
S           2.68740597762967   -0.12103515596849    0.35847149918881
C           1.40597622939824   -1.26513066541955    0.33134339880127
C           0.19531486271412   -0.68354302575796    0.12514952168919
C           0.29816037708840    0.72860893929797   -0.01653595624494
C          -0.88369300591610    1.60790293873405   -0.29337527557759
C          -2.20309005061174    0.89358479874213    0.01984296339737
C          -2.47856426165906    0.92760629385290    1.51856473256406
F          -2.78617620732521    2.17630511168206    1.91927583044727
F          -3.52800866621320    0.15926981135006    1.86020046457520
F          -1.45914571185543    0.53716305607007    2.29195898209583
C          -2.20232676736074   -0.53322372502900   -0.53912213662392
C          -1.11776186903912   -1.40177033591524    0.09636897394967
H           1.94445063711078    2.17069782095974    0.02397406962171
H           1.62246792398937   -2.30467867170890    0.47565412313912
H          -0.88446120520157    1.88180323065176   -1.35274039869152
H          -0.80886532046114    2.53341470354869    0.28271945891487
H          -3.03324948865053    1.45287108426676   -0.42712226623596
H          -2.02884244201709   -0.46249076571057   -1.61470727502596
H          -3.18000728794006   -0.99221116640545   -0.38265673163485
H          -1.02265669110213   -2.33684756778514   -0.45938008398776
H          -1.40205513303794   -1.66386024033413    1.11970049078231
