# ORCA input file
# SCF done        -21.539241962616          0.000550081273
! B3LYP/G D3BJ Opt RIJCOSX def2-SVP def2/J
* xyz 0 1
   C       -1.28839        -1.24128        -0.00329
   S       -2.44259         0.03729        -0.00174
   C       -1.22941         1.26748        -0.00069
   C        0.00455         0.69438        -0.00152
   C       -0.01658        -0.74528        -0.00301
   C        1.34929        -1.16545        -0.00374
   C        2.10348        -0.03701        -0.00264
   N        1.31284         1.09097        -0.00137
   H       -1.62851        -2.25635        -0.00429
   H       -1.51795         2.29814         0.00043
   H        1.70653        -2.17512        -0.00490
   H        3.17326         0.05878        -0.00271
   H        1.64682         2.03773        -0.00037
*
