# ORCA input file
# SCF done        -40.291518202003          0.000290823068
! B3LYP/G D3BJ Opt RIJCOSX def2-SVP def2/J
* xyz 0 1
   C        0.77897        -0.91467        -0.00215
   O        1.94775        -0.27838        -0.06592
   C        1.71801         1.05110        -0.07962
   C        0.35709         1.27293        -0.02284
   C       -0.25714        -0.01822         0.02815
   C       -1.63377        -0.30068         0.09476
   N       -2.75310        -0.53303         0.14875
   C       -0.41676         2.54382        -0.01085
   F        0.35435         3.63960        -0.06476
   F       -1.26227         2.62628        -1.05187
   F       -1.16605         2.66437         1.09797
   C        2.83542         1.96419        -0.14621
   C        4.09957         1.55494        -0.19518
   H        0.78271        -1.98663         0.01695
   H        2.58430         3.01295        -0.15483
   H        4.35580         0.50899        -0.18855
   H        4.91139         2.25787        -0.24583
*
