17
 SCF done        -34.287617618520          0.000825464787
C          -0.80132876390090    0.15242850536999    0.23870793011414
O           0.21002381485145    1.04095677649470    0.32755303121178
C           1.37360318866113    0.37452502010344    0.33026055241539
C           1.12069980894949   -0.99294960426490    0.25226140052833
C          -0.30721375105224   -1.12144113032546    0.17634352696107
O          -0.99232597803497   -2.26117108847875    0.07706258049764
C           1.96720963649312   -2.18183693009555    0.28118025643905
O           1.51677333688661   -3.27790832945484    0.02807456070384
O           3.25388383590666   -2.04524175891112    0.63238300114077
C           2.60397422219977    1.12986374653375    0.35678247561236
C           2.65884807001070    2.42928563497148    0.63979742728995
H          -1.80132621357092    0.53146144548170    0.21798187410618
H          -0.33782777210130   -2.98899730731026    0.00895110263111
H           3.47443714506171   -1.14210472584156    0.89331432734460
H           3.50654050013586    0.59401205811331    0.09261990377059
H           1.77040392267699    2.98280386217909    0.88999847914360
H           3.58871499682681    2.96887382543496    0.62857757008959
