# ORCA input file
# SCF done        -32.833200123615          0.000636500471
! B3LYP/G D3BJ Opt RIJCOSX def2-SVP def2/J
* xyz 0 1
   C        0.04019        -1.20100        -0.10167
   S       -1.24061        -0.10762         0.33723
   C       -0.07357         1.17694         0.37006
   C        1.17343         0.66128         0.04848
   N        1.19579        -0.67119        -0.20836
   C        2.42368         1.43765        -0.03055
   O        2.51620         2.62976         0.15314
   O        3.46019         0.65487        -0.33185
   C        4.71822         1.30036        -0.43907
   C       -0.41155         2.53484         0.69145
   C       -1.64030         2.95071         0.98567
   H       -0.16159        -2.24089        -0.26328
   H        5.46075         0.50938        -0.50483
   H        4.89952         1.93046         0.43455
   H        4.74803         1.92641        -1.33392
   H        0.42658         3.21763         0.67464
   H       -2.48020         2.27374         1.00233
   H       -1.84272         3.98085         1.21933
*
