# ORCA input file
# SCF done        -27.714884213708          0.000851612292
! B3LYP/G D3BJ Opt RIJCOSX def2-SVP def2/J
* xyz 0 1
   N        2.10848         0.15939        -0.00430
   C        0.75856         0.27700        -0.01613
   S       -0.25194        -1.12032        -0.18112
   C       -1.66190        -0.11144        -0.01964
   N       -2.90825        -0.72394        -0.07267
   O       -3.89716        -0.01870         0.03770
   O       -2.92297        -1.93584        -0.22871
   C       -1.34773         1.21580         0.14954
   C        0.02692         1.43926         0.15015
   H        2.52227        -0.70642        -0.30267
   H        2.66060         0.99352        -0.10742
   H       -2.09855         1.97614         0.26396
   H        0.48171         2.40524         0.26991
*
