22
 SCF done        -51.294366070298          0.000817344781
C           0.02494324204128    1.45303798550295   -0.06047863916094
C           1.18121716729890    0.68578482623570   -0.03485837322498
C           2.53549038149035    1.28510358141823   -0.05118308161834
O           2.81204802965551    2.44354008507341   -0.09511824563042
S           3.74672010037345   -0.03350150376812    0.00517278674750
C           2.49560424838743   -1.32916170461340    0.02995913245703
O           2.77677924733359   -2.48840032826531    0.05293225013140
C           1.15348997878876   -0.70862285244916    0.01419829211577
C          -0.05050528435263   -1.43993596218915    0.02632950598108
C          -1.20976300180180   -0.65045599079296    0.01772784968352
C          -1.16170697387872    0.74315114790073   -0.02141400066808
C          -2.55910218549104    1.24714629796750    0.02216430545343
O          -2.96697695675366    2.36284462151230   -0.00851212369888
O          -3.37223098105324    0.14644697842429    0.11827275791541
C          -2.64660184233454   -1.02451575054384    0.13036504629486
O          -3.16880782570562   -2.08737933559306    0.23698829350569
C          -0.06086640233049   -2.89402564434711    0.06526894068187
C          -0.87372966760531   -3.65810248977657   -0.65391849022280
H           0.05782228878099    2.52996686174299   -0.09582495486593
H           0.69967606797803   -3.34392497268137    0.68809777421509
H          -1.59766586960781   -3.25170176354978   -1.33832155814168
H          -0.81966376121350   -4.73063408720826   -0.59325746795058
