# ORCA input file
# SCF done        -31.664709223900          0.000920735950
! B3LYP/G D3BJ Opt RIJCOSX def2-SVP def2/J
* xyz 0 1
   C        1.55339         1.22596         0.03641
   S        2.77409         0.01686        -0.05313
   C        1.58519        -1.22253        -0.05919
   C        0.32335        -0.72361         0.00920
   C        0.30171         0.69896         0.05838
   C       -0.97393         1.47600         0.15691
   C       -2.15465         0.62597        -0.30782
   C       -2.14157        -0.72373         0.40628
   C       -0.93067        -1.54235        -0.04809
   C       -1.13633        -2.09759        -1.44317
   O       -0.28453        -2.26114        -2.26604
   H        1.83628         2.25941         0.06523
   H        1.88909        -2.24806        -0.12177
   H       -0.90252         2.39049        -0.43495
   H       -1.13020         1.77200         1.19983
   H       -2.08802         0.46318        -1.38639
   H       -3.08879         1.15140        -0.10115
   H       -3.05944        -1.27622         0.19338
   H       -2.08763        -0.56194         1.48484
   H       -0.82523        -2.43145         0.58966
   H       -2.19182        -2.37722        -1.64616
*
