21
 SCF done        -31.664709223900          0.000920735950
C           1.55339472468881    1.22596378196384    0.03641270365745
S           2.77409038092426    0.01686338064853   -0.05313145160613
C           1.58518931619596   -1.22252531335628   -0.05918694510959
C           0.32334878329848   -0.72360561008961    0.00919587764602
C           0.30170563316247    0.69896145875246    0.05838062475287
C          -0.97392539176500    1.47600308525506    0.15690759288878
C          -2.15465159502659    0.62596755983824   -0.30781851418213
C          -2.14157268678474   -0.72373083171188    0.40627901688017
C          -0.93067484622294   -1.54234803596729   -0.04809407430724
C          -1.13632588912032   -2.09759456186219   -1.44317332334381
O          -0.28452684816250   -2.26114058392303   -2.26603589208317
H           1.83628105865035    2.25941130517319    0.06523138780539
H           1.88908855383782   -2.24806043550528   -0.12177101931502
H          -0.90251758457428    2.39049275420331   -0.43494886830342
H          -1.13020321629690    1.77200462292248    1.19982569760151
H          -2.08802494090108    0.46317914920214   -1.38638940006906
H          -3.08878770198914    1.15139539189634   -0.10114676181982
H          -3.05943635050761   -1.27622456421962    0.19338335778021
H          -2.08762770568671   -0.56194002639446    1.48483938165580
H          -0.82522742347598   -2.43145207022034    0.58965812100710
H          -2.19181627024437   -2.37722045660564   -1.64615751153590
