# ORCA input file
# SCF done        -26.330109502009          0.000623592724
! B3LYP/G D3BJ Opt RIJCOSX def2-SVP def2/J
* xyz 0 1
   C       -0.03705         1.44922         0.47638
   S       -1.20451         0.19627         0.49079
   C       -0.08815        -0.90677        -0.22662
   C        1.11740        -0.32234        -0.45799
   C        1.15973         1.05753        -0.05052
   C        2.35494         1.86073        -0.20936
   C        2.48116         3.14124         0.11886
   O        2.22123        -0.88803        -1.00870
   C        2.12105        -2.23851        -1.38529
   H       -0.30501         2.41118         0.86311
   H       -0.40903        -1.90904        -0.42383
   H        3.18923         1.32254        -0.63871
   H        1.67184         3.70910         0.54491
   H        3.40712         3.66848        -0.03079
   H        3.08868        -2.50629        -1.80597
   H        1.34124        -2.38420        -2.13945
   H        1.90832        -2.87671        -0.52195
*
