# ORCA input file
# SCF done        -32.553922515129          0.000996785757
! B3LYP/G D3BJ Opt RIJCOSX def2-SVP def2/J
* xyz 0 1
   C       -1.11851         1.19979         0.03761
   S       -2.27547        -0.06750         0.03748
   C       -1.04197        -1.29676         0.03068
   C        0.20290        -0.71084         0.03910
   C        0.15275         0.71193         0.03332
   O        1.27463         1.49310         0.01468
   C        2.42491         0.75272        -0.34218
   C        2.47347        -0.56828         0.42568
   O        1.38566        -1.39682         0.06616
   C       -1.41916        -2.68441         0.01583
   C       -0.56858        -3.70516        -0.04718
   H       -1.42617         2.22433         0.04291
   H        3.28199         1.38127        -0.09766
   H        2.41544         0.54373        -1.42104
   H        2.44361        -0.36049         1.50432
   H        3.37759        -1.12904         0.18496
   H       -2.48625        -2.85861         0.05543
   H        0.49485        -3.54949        -0.09484
   H       -0.92019        -4.72226        -0.05044
*
