18
 SCF done        -28.956195876043          0.000572542902
C          -0.37910938480723    1.13354334302453   -0.45496758157803
N          -1.01263170432874   -0.05577943089364   -0.40834648504127
C          -0.14168293764152   -1.02895620662963   -0.01454556255323
C           1.08291476639661   -0.41931697993572    0.20759183347656
C           0.92649661381573    0.94473371147840   -0.06764158579150
C          -0.54168540937734   -2.41283814112828    0.12822591696417
C          -2.01432401866265   -2.68459708785470    0.13579801476111
O          -2.82322503354179   -2.05328827467573   -0.52209383606353
N          -2.40416402413728   -3.68787230092594    0.95141610001086
C           0.33790612278912   -3.41868283075028    0.21681755877826
H          -0.88687438942237    2.02920014178140   -0.75485510297763
H          -1.96915505835137   -0.26168836497740   -0.66512947408776
H           1.98021402047423   -0.89861401947921    0.54522075592230
H           1.68277258764526    1.70083404768361    0.00808693003094
H          -1.75302417917292   -4.19365047931713    1.52337597753981
H          -3.38115832021977   -3.92729264151973    0.98841141785502
H           1.39633509875770   -3.23469050723239    0.17129480311896
H           0.03499524978435   -4.44883397864817    0.28871031963492
