# ORCA input file
# SCF done        -28.136211769871          0.000537952322
! B3LYP/G D3BJ Opt RIJCOSX def2-SVP def2/J
* xyz 0 1
   C       -1.32969        -0.14850         0.13508
   S       -0.53269         1.36368         0.10114
   C        1.02527         0.61149        -0.07571
   C        0.90151        -0.76445        -0.10501
   C       -0.45835        -1.19547         0.01774
   C       -0.85202        -2.54805         0.02025
   N       -1.17900        -3.64583         0.02447
   C        1.95020        -1.69020        -0.23905
   N        2.77308        -2.48197        -0.34713
   C        2.18956         1.45380        -0.16418
   C        3.44414         1.03493        -0.31047
   H       -2.39578        -0.20112         0.23940
   H        1.97633         2.51328        -0.10165
   H        3.70165        -0.00765        -0.37589
   H        4.25637         1.73788        -0.36706
*
