# ORCA input file
# SCF done        -36.677597026960          0.000336286986
! B3LYP/G D3BJ Opt RIJCOSX def2-SVP def2/J
* xyz 0 1
   C        1.09916        -0.64423         0.29633
   C        1.12018         0.69241         0.68228
   O        2.24461         1.44617         0.85255
   C        3.50424         0.85128         0.62047
   C        4.56727         1.91029         0.86955
   C       -0.08976         1.33879         0.92059
   C       -1.29449         0.67827         0.77883
   C       -1.31561        -0.65779         0.39067
   C       -0.10565        -1.30460         0.15405
   O       -2.44033        -1.41037         0.21703
   C       -3.70072        -0.80880         0.42625
   C       -4.76532        -1.85716         0.14148
   H        2.01271        -1.18392         0.10290
   H        3.56688         0.48832        -0.41548
   H        3.65189        -0.00070         1.29967
   H        4.41367         2.75260         0.20072
   H        5.55483         1.49205         0.69732
   H        4.50273         2.26639         1.89404
   H       -0.06682         2.37459         1.22042
   H       -2.20801         1.21722         0.97430
   H       -0.12850        -2.34056        -0.14526
   H       -3.82662         0.05109        -0.24713
   H       -3.78465        -0.45601         1.46423
   H       -4.67961        -2.20228        -0.88523
   H       -5.75362        -1.43351         0.29571
   H       -4.63301        -2.70795         0.80404
*
