8
 SCF done        -14.925282980440          0.000290786646
C           0.63787098122664   -0.96703033814784    0.00518499168964
O           1.06379925689489    0.31343819866277    0.01003742811357
C          -0.05634260906535    1.04267792347041    0.00476353418083
N          -1.14176834949267    0.34455020172999   -0.00162107956292
C          -0.72107349807341   -0.95431276601408   -0.00185928351938
H           1.37139442589988   -1.74589412826691    0.00771533630796
H           0.01354871032151    2.11164624351454    0.00686705271536
H          -1.41695891771148   -1.76655533494887   -0.00679797992507
