# ORCA input file
# SCF done        -18.713969624456          0.000394897128
! B3LYP/G D3BJ Opt RIJCOSX def2-SVP def2/J
* xyz 0 1
   C       -1.15201        -0.03741         0.00007
   O       -0.36921         1.06164        -0.00207
   C        0.90239         0.64688        -0.00164
   C        0.97056        -0.71236         0.00306
   C       -0.37739        -1.16176         0.00275
   O       -0.82801        -2.44199         0.00542
   H       -2.21320         0.09651        -0.00045
   H        1.66810         1.39700        -0.00384
   H        1.85354        -1.31946         0.00556
   H       -0.07156        -3.03900         0.00818
*
