# ORCA input file
# SCF done        -37.136871842882          0.000874309103
! B3LYP/G D3BJ Opt RIJCOSX def2-SVP def2/J
* xyz 0 1
   C       -1.54504         1.25619        -0.05407
   S       -2.70118         0.00868        -0.10083
   C       -1.50154        -1.23665        -0.02286
   C       -0.22667        -0.67771         0.00466
   C       -0.26068         0.76252        -0.00288
   C        0.94323         1.50674         0.03282
   C        2.12399         0.83563         0.04715
   F        3.28664         1.50966         0.08180
   C        2.16298        -0.58373         0.00381
   F        3.36365        -1.19030        -0.02448
   C        1.02683        -1.33139        -0.01987
   C       -1.95107        -2.60326         0.02257
   C       -1.29756        -3.63585         0.55009
   H       -1.85598         2.28132        -0.06307
   H        0.92179         2.58436         0.04166
   H        1.09666        -2.40374        -0.08532
   H       -2.94527        -2.75723        -0.37914
   H       -0.33934        -3.53484         1.02583
   H       -1.72598        -4.62249         0.54254
*
