23
 SCF done        -37.021146248028          0.000657998824
C          -1.68322124945953   -0.82360675157758   -0.68087701286435
S          -2.66425231779914    0.57375605484349   -0.95399465499860
C          -0.39270043558523   -0.46513029341959   -0.49726961436830
C           0.91983947505190   -1.11703974432593   -0.19293459941918
N           0.94715211050870   -1.55913247600092    1.18399926322656
C           2.17068775911186   -2.25670213042730    1.54260968325263
C           2.12530597205944   -2.68081992675121    3.00177713792683
O           1.87770499127829   -0.08819095252902   -0.39288627433756
C           1.28469019252060    1.20597187949086   -0.36056081658123
O           1.88024808599367    2.01856971398327   -1.31177007076584
C          -0.18230891164647    0.93502960903568   -0.56513999319034
C          -1.30977498477757    1.63814197611468   -0.81064752885142
H          -2.13507865622746   -1.79472530172025   -0.68353910954941
H           1.18653635735847   -1.92896543148359   -0.90191516802088
H           0.13748978343434   -2.14317478098920    1.37017085420392
H           2.99159838419856   -1.55570099754290    1.37545029791994
H           2.34022569423660   -3.13801447643996    0.89765166359904
H           1.95172404136398   -1.81465101483397    3.63398389136418
H           3.06648688011676   -3.14383061966058    3.28567764726776
H           1.32191611524788   -3.39634639111948    3.16707478638369
H           1.47218280368401    1.69429238812247    0.60825815222524
H           1.94681130536726    1.52412590501092   -2.13839326614354
H          -1.44682339603691    2.69423376222018   -0.91979526827916
