# ORCA input file
# SCF done        -33.288936970462          0.000662932572
! B3LYP/G D3BJ Opt RIJCOSX def2-SVP def2/J
* xyz 0 1
   C       -1.17712        -0.07132        -0.02279
   N       -0.33905         0.98407        -0.05903
   C       -0.67750         2.37951        -0.01779
   C       -0.80527         2.87757         1.42099
   N        0.93201         0.59530        -0.06421
   C        0.92452        -0.72851        -0.03655
   C       -0.40224        -1.21215        -0.01304
   C       -0.88218        -2.62477         0.03402
   C       -1.16990        -3.07333         1.46800
   C        2.20032        -1.50060        -0.01926
   C        2.71201        -1.69589         1.40900
   H       -2.24206         0.05323        -0.02198
   H       -1.61751         2.52877        -0.55646
   H        0.12065         2.92280        -0.52866
   H       -1.59653         2.34165         1.94026
   H       -1.03545         3.93925         1.43099
   H        0.13005         2.71424         1.94965
   H       -0.12932        -3.28228        -0.40584
   H       -1.79677        -2.71372        -0.55800
   H       -0.27089        -3.00376         2.07609
   H       -1.51854        -4.10378         1.48229
   H       -1.93411        -2.44161         1.91585
   H        2.94643        -0.94859        -0.59296
   H        2.04653        -2.47365        -0.49043
   H        2.87029        -0.72912         1.88051
   H        3.65303        -2.24175         1.40433
   H        1.99092        -2.25448         2.00172
*
