# ORCA input file
# SCF done        -46.443582460398          0.000609917040
! B3LYP/G D3BJ Opt RIJCOSX def2-SVP def2/J
* xyz 0 1
   C       -2.80958        -1.19985        -0.00420
   S       -3.99047         0.04230         0.01098
   C       -2.77877         1.25364         0.00615
   C       -1.51948         0.72447        -0.00405
   C       -1.53769        -0.70298        -0.01061
   C       -0.31349        -1.51157        -0.02347
   O       -0.32444        -2.72790        -0.04164
   C        0.93960        -0.72318        -0.00942
   C        2.14988        -1.41280        -0.00460
   C        3.35320        -0.73643         0.02186
   C        3.38464         0.65493         0.04592
   C        4.68839         1.39554         0.03707
   C        5.13471         1.66436        -1.40197
   C        2.18053         1.34456         0.03112
   C        0.95915         0.68010         0.00524
   C       -0.27604         1.50126        -0.00457
   O       -0.25423         2.71723        -0.01243
   H       -3.10173        -2.23131        -0.00596
   H       -3.04423         2.29229         0.01271
   H        2.11854        -2.49227        -0.01905
   H        4.28053        -1.29081         0.02881
   H        5.45269         0.80667         0.54790
   H        4.57649         2.34584         0.56188
   H        5.26260         0.72846        -1.94128
   H        6.07967         2.20188        -1.40987
   H        4.39054         2.26169        -1.92348
   H        2.16671         2.42509         0.04468
*
