27
 SCF done        -46.443582460398          0.000609917040
C          -2.80958101086126   -1.19984993122407   -0.00420111325561
S          -3.99046987299549    0.04229883466626    0.01098439468902
C          -2.77876800066850    1.25363716618870    0.00614850165702
C          -1.51948180592635    0.72446794316453   -0.00405347325018
C          -1.53768840489720   -0.70297966994901   -0.01061448746730
C          -0.31348633423529   -1.51157471606082   -0.02346575752030
O          -0.32444314452390   -2.72789846079541   -0.04164372403347
C           0.93959611817047   -0.72318426060274   -0.00941568251875
C           2.14987714247743   -1.41279682156451   -0.00460167029784
C           3.35319609964996   -0.73643005678003    0.02186205674963
C           3.38463772916768    0.65493332521744    0.04591875432032
C           4.68838591675070    1.39553907612526    0.03706817084044
C           5.13471170229635    1.66435822926850   -1.40196999162990
C           2.18052933287496    1.34455893491595    0.03112100426605
C           0.95914864125728    0.68010075057541    0.00524359793848
C          -0.27603723213925    1.50125539000066   -0.00456908979811
O          -0.25422885331293    2.71722974928326   -0.01243101009175
H          -3.10172921760670   -2.23130688073393   -0.00596389839749
H          -3.04423318473093    2.29228825690060    0.01270555225787
H           2.11854281091768   -2.49226695999812   -0.01904553654672
H           4.28052615708046   -1.29081073474594    0.02880531374230
H           5.45268920755917    0.80667262734791    0.54789555968816
H           4.57649140408030    2.34583722222195    0.56188320395669
H           5.26259655540047    0.72846094000168   -1.94128350222129
H           6.07967147284745    2.20187630984048   -1.40986780260294
H           4.39053581769241    2.26169481535052   -1.92347905074540
H           2.16671095367508    2.42508892138548    0.04467968027101
