# ORCA input file
# SCF done        -30.211009915539          0.000523678560
! B3LYP/G D3BJ Opt RIJCOSX def2-SVP def2/J
* xyz 0 1
   C       -0.15314         1.01985         0.11876
   O       -0.93792        -0.05186         0.12945
   C       -0.14826        -1.14599        -0.00058
   C        1.16463        -0.75757        -0.09512
   C        1.16693         0.66367        -0.01776
   C        2.29080         1.61564        -0.06576
   O        2.14668         2.80540         0.00303
   O        3.51602         1.07176        -0.19298
   C       -0.72695        -2.46728        -0.02225
   C       -2.02918        -2.71120         0.08064
   H       -0.60345         1.98813         0.21180
   H        1.99972        -1.42162        -0.20636
   H        3.48458         0.10734        -0.23528
   H       -0.01093        -3.26989        -0.12989
   H       -2.74095        -1.91086         0.19040
   H       -2.41815        -3.71355         0.06199
*
