24
 SCF done        -47.505840785666          0.000492595510
C           1.54557073531241    1.22831304310706   -0.11744985826689
S           2.79901095155381    0.05986226379160   -0.22565374512235
C           1.64556883104122   -1.19871586766668   -0.42654655018042
C           0.36621689275036   -0.73925249011365   -0.41332939072843
C           0.31163988220118    0.67136015851846   -0.23497885885327
C          -0.98385362923348    1.42020643728472   -0.22153880630605
C          -2.12427876272139    0.48220720460033    0.20695576802306
C          -2.05176733634399    0.10979345175923    1.66032897095008
O          -2.10052196251120   -0.99081320971923    2.12590110274178
C          -1.95352456518511    1.32514831385493    2.63942229675723
F          -2.63676278691219    2.39585259623300    2.19737606323102
F          -2.44459910351755    1.01845064750031    3.83877610714675
F          -0.68398787727555    1.72011503084200    2.81496462632447
C          -2.12947229014343   -0.76225876302438   -0.68749708900007
C          -0.85745404462399   -1.59616795889709   -0.51491500433625
H           1.79288109319284    2.26082400857526    0.02710373192738
H           1.98246293300692   -2.20973275199589   -0.53953484557647
H          -1.20597095501375    1.77650638956599   -1.23238597965425
H          -0.90958406136042    2.30024375244320    0.41735665678348
H          -3.07304513520003    1.02408108121166    0.09051788260880
H          -2.21710963307264   -0.43102768587324   -1.72368442205304
H          -2.99690507621224   -1.38054977359766   -0.45292703556453
H          -0.75884543257922   -2.29051367331356   -1.35211957787673
H          -0.93721866715216   -2.19666220508613    0.39485795702452
