20
 SCF done        -29.746256642201          0.000267382530
C          -0.62611507681694    2.32608102705385    0.00525128912536
C           0.72595766515613    2.29941437713478    0.00497394103013
C           1.17981565107464    0.91483529718194    0.00319427829665
C           0.00683544489363    0.12810342530907    0.00159133502592
C          -0.02057265585690   -1.26171271891282   -0.00061405694510
C          -1.30837583047336   -1.84845051838940   -0.00177029246349
C          -2.42681348592511   -1.05081601265020   -0.00068932984759
C          -2.36704055969394    0.35848777415147    0.00143163629048
C          -1.13421395618633    0.96047327709605    0.00261913432622
C           1.24309433033072   -1.89876776190186   -0.00135258460285
C           2.39211319744776   -1.14585100770193    0.00013009592017
C           2.38794995080918    0.26470995813931    0.00247526614043
H          -1.24807446697503    3.20327186002233    0.00674824904356
H           1.38201646462980    3.15140264422992    0.00621805921486
H          -1.40764538844744   -2.92468806366535   -0.00348168159321
H          -3.40234183319480   -1.51703815777218   -0.00161271817034
H          -3.28459630612681    0.92972439345453    0.00220102100117
H           1.29985755094738   -2.97808227211712   -0.00310555945772
H           3.34849802881259   -1.65017917114884   -0.00049632940908
H           3.32731127559485    0.79933165048646    0.00353824707442
