# ORCA input file
# SCF done        -29.746256642201          0.000267382530
! B3LYP/G D3BJ Opt RIJCOSX def2-SVP def2/J
* xyz 0 1
   C       -0.62612         2.32608         0.00525
   C        0.72596         2.29941         0.00497
   C        1.17982         0.91484         0.00319
   C        0.00684         0.12810         0.00159
   C       -0.02057        -1.26171        -0.00061
   C       -1.30838        -1.84845        -0.00177
   C       -2.42681        -1.05082        -0.00069
   C       -2.36704         0.35849         0.00143
   C       -1.13421         0.96047         0.00262
   C        1.24309        -1.89877        -0.00135
   C        2.39211        -1.14585         0.00013
   C        2.38795         0.26471         0.00248
   H       -1.24807         3.20327         0.00675
   H        1.38202         3.15140         0.00622
   H       -1.40765        -2.92469        -0.00348
   H       -3.40234        -1.51704        -0.00161
   H       -3.28460         0.92972         0.00220
   H        1.29986        -2.97808        -0.00311
   H        3.34850        -1.65018        -0.00050
   H        3.32731         0.79933         0.00354
*
