19
 SCF done        -31.731706496758          0.000482408830
C           1.40253286064046   -1.29973663300700    0.15055774616447
S           2.70735646543455   -0.19453809168188    0.24825378541357
C           1.63151988397471    1.17336255559406    0.18397714690552
C           0.32232945909432    0.75191199480161    0.10650546889626
C           0.19673182656897   -0.66662348038302    0.07828900628879
O          -0.95947274515022   -1.38617993102994    0.00798664056459
C          -2.10829411523455   -0.66871478796233   -0.38362163354809
C          -2.33649070223584    0.56144618228257    0.47776875860996
S          -1.07312851620568    1.82083577891939    0.09647040681411
C           2.20900100768143    2.48814898476590    0.22690019849735
C           1.57471053182498    3.63936800897940    0.01836365376423
H           1.57449538809562   -2.35589753917403    0.15592796833567
H          -2.93354904275913   -1.37675391624975   -0.26995889541036
H          -2.03236584277131   -0.37256912576195   -1.43961403384518
H          -2.27163808806913    0.30958413813131    1.53691416030164
H          -3.29803605459006    1.02139562791462    0.26153906173634
H           3.27024968326540    2.49130694248844    0.44157740744547
H           0.52791840922115    3.68776256682010   -0.22250565709810
H           2.09844959121433    4.57691072455249    0.08285881016392
