# ORCA input file
# SCF done        -31.731706496758          0.000482408830
! B3LYP/G D3BJ Opt RIJCOSX def2-SVP def2/J
* xyz 0 1
   C        1.40253        -1.29974         0.15056
   S        2.70736        -0.19454         0.24825
   C        1.63152         1.17336         0.18398
   C        0.32233         0.75191         0.10651
   C        0.19673        -0.66662         0.07829
   O       -0.95947        -1.38618         0.00799
   C       -2.10829        -0.66871        -0.38362
   C       -2.33649         0.56145         0.47777
   S       -1.07313         1.82084         0.09647
   C        2.20900         2.48815         0.22690
   C        1.57471         3.63937         0.01836
   H        1.57450        -2.35590         0.15593
   H       -2.93355        -1.37675        -0.26996
   H       -2.03237        -0.37257        -1.43961
   H       -2.27164         0.30958         1.53691
   H       -3.29804         1.02140         0.26154
   H        3.27025         2.49131         0.44158
   H        0.52792         3.68776        -0.22251
   H        2.09845         4.57691         0.08286
*
