# ORCA input file
# SCF done        -26.841525158349          0.000664619363
! B3LYP/G D3BJ Opt RIJCOSX def2-SVP def2/J
* xyz 0 1
   C       -1.51113        -1.23376         0.15671
   S       -2.68991         0.00612         0.21346
   C       -1.50382         1.23255         0.13940
   C       -0.23330         0.71334         0.07188
   C       -0.23476        -0.72734         0.08230
   C        0.98917        -1.43001         0.01198
   C        2.16741        -0.73483        -0.05715
   C        2.15842         0.69312        -0.06462
   C        1.00362         1.40120        -0.00367
   N        3.39019        -1.38029        -0.04881
   H       -1.81948        -2.25942         0.18189
   H       -1.80047         2.26233         0.14962
   H        0.98305        -2.51029         0.01781
   H        3.10997         1.20322        -0.11945
   H        1.00729         2.48102        -0.01180
   H        3.37496        -2.35680        -0.29599
   H        4.16755        -0.86753        -0.43273
*
