# ORCA input file
# SCF done        -45.570228628469          0.000811064282
! B3LYP/G D3BJ Opt RIJCOSX def2-SVP def2/J
* xyz 0 1
   C       -1.53284         1.23555        -0.03348
   S       -2.66367        -0.03074        -0.10057
   C       -1.44744        -1.25895        -0.04299
   C       -0.18033        -0.68172        -0.01000
   C       -0.24283         0.75885         0.00863
   C        0.94946         1.52477         0.05250
   F        0.85457         2.86194         0.09241
   C        2.16363         0.90331         0.04331
   F        3.30683         1.59706         0.08393
   C        2.23374        -0.51380        -0.03366
   F        3.44444        -1.08440        -0.08708
   C        1.10273        -1.28281        -0.06807
   F        1.23254        -2.61116        -0.19150
   C       -1.89299        -2.63172         0.00541
   C       -1.30330        -3.62689         0.66042
   H       -1.84944         2.25871        -0.02691
   H       -2.83966        -2.80589        -0.49273
   H       -0.39580        -3.49905         1.22239
   H       -1.72626        -4.61582         0.65328
*
