# ORCA input file
# SCF done        -37.561999164313          0.000429098958
! B3LYP/G D3BJ Opt RIJCOSX def2-SVP def2/J
* xyz 0 1
   C        1.19982         0.36898        -0.06018
   C        0.80114        -0.93768        -0.00998
   C       -0.65594        -0.97447         0.05419
   C       -1.11365         0.28964         0.04166
   C        0.03140         1.19188        -0.03047
   C       -0.03464         2.56320        -0.05894
   C        1.11261         3.46810        -0.12801
   C        0.65651         4.73240        -0.12481
   C       -0.80133         4.69349        -0.05013
   C       -1.19975         3.38830        -0.01457
   N       -1.57694         5.81887        -0.08610
   N        1.53943        -2.08662        -0.01280
   C        2.90374        -2.17983        -0.07579
   C        3.56750        -3.33345        -0.07715
   H        2.20458         0.73853        -0.11340
   H       -1.23086        -1.88260         0.10201
   H       -2.13683         0.61019         0.07674
   H        2.13558         3.14761        -0.17310
   H        1.23024         5.64095        -0.16834
   H       -2.21125         3.03522         0.03942
   H       -1.14049         6.68887         0.17131
   H       -2.54273         5.71904         0.17946
   H        1.02722        -2.95705         0.03253
   H        3.41684        -1.23177        -0.12500
   H        3.05821        -4.28112        -0.02736
   H        4.63875        -3.35896        -0.12736
*
