26
 SCF done        -38.505548198241          0.000451533849
C           2.48167096243666   -1.16441905476996    0.02356698502718
C           3.40473225962472   -0.13535635837254    0.02187706754119
C           3.00698415301192    1.19878973452193   -0.00014773095283
C           1.66895819330230    1.53893979583653   -0.02370660449843
C           0.72471704426820    0.52158792934740   -0.01603235229393
C           1.13540011701042   -0.82942994054037    0.01564890994515
N           0.02184417689178   -1.65221871089386    0.00317115594154
C          -1.10698127864180   -0.84933850260212   -0.01429925407324
C          -0.71145061767155    0.50895075615049   -0.03272459303676
C          -1.66327150441415    1.51919076037821   -0.03690781066521
C          -2.99848793462040    1.17070108870755   -0.00591135927526
C          -3.38205939879444   -0.16612920624653    0.05315411493828
C          -2.45115359434230   -1.18813053368769    0.05442907364816
C           0.09388524282044   -3.03678708601136    0.00561218416407
C          -0.76497672193490   -3.86963643974998   -0.56525352459595
H           2.81051351046054   -2.19254016587764    0.02647188073748
H           4.45842302967423   -0.37237038980318    0.03260235431695
H           3.75881574173612    1.97389995705456   -0.00348882985659
H           1.35880750781810    2.57268354785044   -0.04836944391866
H          -1.35896030647539    2.55483188419361   -0.05579093902747
H          -3.75658236718546    1.93964023705127   -0.01169170028295
H          -4.43256372938373   -0.41242729237019    0.10351833791631
H          -2.77232169895368   -2.21413204954420    0.13298557092525
H           0.96661062196091   -3.41820824853400    0.52154654056901
H          -1.61362152390774   -3.53299405620344   -1.13159522333346
H          -0.62472188469077   -4.93220765588489   -0.48744480985984
