# ORCA input file
# SCF done        -38.505548198241          0.000451533849
! B3LYP/G D3BJ Opt RIJCOSX def2-SVP def2/J
* xyz 0 1
   C        2.48167        -1.16442         0.02357
   C        3.40473        -0.13536         0.02188
   C        3.00698         1.19879        -0.00015
   C        1.66896         1.53894        -0.02371
   C        0.72472         0.52159        -0.01603
   C        1.13540        -0.82943         0.01565
   N        0.02184        -1.65222         0.00317
   C       -1.10698        -0.84934        -0.01430
   C       -0.71145         0.50895        -0.03272
   C       -1.66327         1.51919        -0.03691
   C       -2.99849         1.17070        -0.00591
   C       -3.38206        -0.16613         0.05315
   C       -2.45115        -1.18813         0.05443
   C        0.09389        -3.03679         0.00561
   C       -0.76498        -3.86964        -0.56525
   H        2.81051        -2.19254         0.02647
   H        4.45842        -0.37237         0.03260
   H        3.75882         1.97390        -0.00349
   H        1.35881         2.57268        -0.04837
   H       -1.35896         2.55483        -0.05579
   H       -3.75658         1.93964        -0.01169
   H       -4.43256        -0.41243         0.10352
   H       -2.77232        -2.21413         0.13299
   H        0.96661        -3.41821         0.52155
   H       -1.61362        -3.53299        -1.13160
   H       -0.62472        -4.93221        -0.48744
*
