# ORCA input file
# SCF done        -34.170117807282          0.000943206601
! B3LYP/G D3BJ Opt RIJCOSX def2-SVP def2/J
* xyz 0 1
   C        1.69335        -1.46580         0.13896
   S        3.25625        -0.75402         0.04250
   C        2.60816         0.83814        -0.10490
   C        1.25322         0.80524        -0.07982
   C        0.71257        -0.52121         0.06070
   C       -0.70615        -0.46949         0.07936
   C       -1.21592         0.81281        -0.03898
   S        0.02309         2.04765        -0.18295
   C       -2.61540         0.86886        -0.01909
   C       -3.17899        -0.37613         0.11576
   S       -1.96552        -1.63577         0.21809
   C       -4.58203        -0.67916         0.17397
   C       -5.09470        -1.89928         0.30632
   H        1.59257        -2.52629         0.24566
   H        3.26466         1.67819        -0.19886
   H       -3.18665         1.77554        -0.09894
   H       -5.23133         0.18545         0.10398
   H       -4.46308        -2.76885         0.38022
   H       -6.15623        -2.06573         0.34361
*
