23
 SCF done        -32.699215030171          0.000395558966
C           1.61794626092184    1.18815950803119   -0.28280132212039
S           2.82867145966701   -0.02977094984541   -0.16877692384552
C           1.63042829161089   -1.22568231381839    0.13641350624360
C           0.37455772369702   -0.70778234977576    0.15087971056236
C           0.36680972300296    0.69440940127259   -0.09634655604651
C          -0.90548235205636    1.47338773178736   -0.17989254087472
C          -2.02925002125291    0.74068057712665    0.54916638330265
C          -2.13537946888825   -0.70118262170310    0.04338010021567
O          -2.34352380502176   -0.64597718734038   -1.35603445830915
C          -2.88435166267874   -1.80864057943023   -1.92124882433889
C          -0.87275257696463   -1.48504466236808    0.43704765533270
H           1.90873053199911    2.19958883113419   -0.48613222216822
H           1.93197728097446   -2.24267668406851    0.29226888076064
H          -1.18553104450775    1.57328131240210   -1.23180488831145
H          -0.76969290675838    2.47511958303974    0.23243691629406
H          -2.97438641045371    1.25510723515184    0.37234321914511
H          -1.83721625913538    0.72195085889370    1.62340610950631
H          -3.00718780875935   -1.18993400000417    0.51317076258956
H          -3.08853910928191   -1.57440515606204   -2.96458892695468
H          -3.82036724997967   -2.09430406060640   -1.42310316977156
H          -2.19096155812236   -2.65656118633650   -1.87681713550716
H          -0.84338779722063   -2.44380883287318   -0.08497530614289
H          -0.92496124079144   -1.70107445460719    1.50883903043846
