# ORCA input file
# SCF done        -32.699215030171          0.000395558966
! B3LYP/G D3BJ Opt RIJCOSX def2-SVP def2/J
* xyz 0 1
   C        1.61795         1.18816        -0.28280
   S        2.82867        -0.02977        -0.16878
   C        1.63043        -1.22568         0.13641
   C        0.37456        -0.70778         0.15088
   C        0.36681         0.69441        -0.09635
   C       -0.90548         1.47339        -0.17989
   C       -2.02925         0.74068         0.54917
   C       -2.13538        -0.70118         0.04338
   O       -2.34352        -0.64598        -1.35603
   C       -2.88435        -1.80864        -1.92125
   C       -0.87275        -1.48504         0.43705
   H        1.90873         2.19959        -0.48613
   H        1.93198        -2.24268         0.29227
   H       -1.18553         1.57328        -1.23180
   H       -0.76969         2.47512         0.23244
   H       -2.97439         1.25511         0.37234
   H       -1.83722         0.72195         1.62341
   H       -3.00719        -1.18993         0.51317
   H       -3.08854        -1.57441        -2.96459
   H       -3.82037        -2.09430        -1.42310
   H       -2.19096        -2.65656        -1.87682
   H       -0.84339        -2.44381        -0.08498
   H       -0.92496        -1.70107         1.50884
*
