# ORCA input file
# SCF done        -43.046309456123          0.000987310382
! B3LYP/G D3BJ Opt RIJCOSX def2-SVP def2/J
* xyz 0 1
   C       -1.61364         1.17105         0.03812
   S       -2.72459        -0.11641         0.17675
   C       -1.48088        -1.31175         0.09505
   C       -0.23097        -0.70468        -0.02635
   C       -0.31163         0.73339        -0.07616
   C        0.88342         1.50935        -0.18264
   C        0.89420         2.98463        -0.33049
   O        1.75923         3.68768         0.11572
   O       -0.11528         3.51863        -1.05412
   C        2.08989         0.85871        -0.15865
   C        2.17502        -0.53952        -0.10727
   C        1.05020        -1.32506        -0.06361
   O        1.12867        -2.67745        -0.04418
   C       -1.79381        -2.70976         0.16611
   C       -3.02543        -3.20307         0.28864
   H       -1.98274         2.17539         0.10731
   H       -0.68315         2.83878        -1.44055
   H        2.99403         1.44557        -0.20809
   H        3.14985        -1.00750        -0.11502
   H        2.05532        -2.94997        -0.05929
   H       -0.94257        -3.37216         0.11216
   H       -3.89118        -2.56366         0.34342
   H       -3.20420        -4.26198         0.33403
*
