# ORCA input file
# SCF done        -31.821374558083          0.000725339099
! B3LYP/G D3BJ Opt RIJCOSX def2-SVP def2/J
* xyz 0 1
   C       -1.15534         0.05679        -0.28171
   S       -1.01333        -1.24284        -1.41572
   C        0.25059        -1.92160        -0.49204
   C        0.54209        -1.16925         0.63797
   C       -0.27223        -0.02951         0.75285
   C        1.64877        -1.81971         1.39274
   O        2.16932        -1.45627         2.41851
   C        1.95874        -3.02644         0.57710
   C        1.12073        -3.06233        -0.52944
   S        1.41103        -4.42098        -1.51999
   C        2.66177        -4.94728        -0.44582
   C        2.84517        -4.11629         0.61882
   H       -1.89531         0.81150        -0.45903
   H       -0.21118         0.68510         1.55264
   H        3.18754        -5.85198        -0.67753
   H        3.57529        -4.27887         1.38985
*
