16
 SCF done        -31.821374558083          0.000725339099
C          -1.15533699782910    0.05678671358362   -0.28170999362739
S          -1.01332779774108   -1.24284476715814   -1.41571936646360
C           0.25058999821565   -1.92160226053066   -0.49203785789318
C           0.54208602366210   -1.16924752823704    0.63797239550748
C          -0.27223167520408   -0.02951476636750    0.75285126517727
C           1.64876839902227   -1.81971404480821    1.39274201864369
O           2.16931635863468   -1.45627249419599    2.41851283280718
C           1.95873587218979   -3.02644089191999    0.57710283103069
C           1.12073468801025   -3.06232683419472   -0.52944095266212
S           1.41102751237610   -4.42097626486067   -1.51998792038099
C           2.66176610247273   -4.94728114500608   -0.44582397518894
C           2.84516622919596   -4.11629001955935    0.61881724979861
H          -1.89530572752347    0.81150378475894   -0.45902761373318
H          -0.21118443083549    0.68510064366657    1.55263888206347
H           3.18753635794425   -5.85198005483481   -0.67752774876511
H           3.57528908740942   -4.27887007033599    1.38984795368614
