32
 SCF done        -51.751247194994          0.000438155678
C          -2.27361581984090   -2.06102397668402   -0.31408882355736
C          -1.18127022311399   -1.15612791308744   -0.15157254692447
C           0.17538766809895   -1.51774303079520   -0.14895167562285
O           0.42006618224569   -2.84528608716005   -0.34136429198071
C           1.61813569086326   -3.42847305970524    0.13188901820383
C           1.72960227263400   -3.39342459182042    1.65170096256843
C           1.08794303864898   -0.47988548476994   -0.00416748800521
C           0.65990539764526    0.85752825768724    0.16740115492796
C          -0.69871253559871    1.21595098697866    0.18392644447589
C          -1.61029016445097    0.18365397645389    0.00591919855309
S          -3.36351463646036    0.25847059898240   -0.06174081325422
C          -3.47293121903275   -1.45355653794781   -0.28869141423947
O          -0.93680340474566    2.54063673918848    0.36734820137181
C          -2.26066009470176    3.02232067901954    0.49109141042191
C          -2.17604337174998    4.51461632380179    0.77142192648520
C           1.75306105000133    1.76523466714404    0.30614299000732
C           2.95337402964704    1.16347940746607    0.23431697183417
S           2.84043440111443   -0.54715245419615   -0.00804041186768
H          -2.12580972905652   -3.11636534611959   -0.44767803605196
H           2.49494418021589   -2.95945953967491   -0.32868373316883
H           1.55730925387654   -4.46298376574359   -0.21756927846137
H           1.78776467915203   -2.36808557772987    2.00915867282614
H           2.62530064821178   -3.92236224457044    1.96336123097076
H           0.86044074957564   -3.86871236045803    2.10016068743014
H          -4.44718392185193   -1.88993626679256   -0.38877013463730
H          -2.77434880596637    2.51174468758040    1.31542478093579
H          -2.81932688855941    2.84372062073313   -0.43630175334765
H          -1.62003806527490    4.68985073388881    1.68853178233381
H          -3.17611896361083    4.92476110900624    0.87557103150478
H          -1.66590118275770    5.01800218584439   -0.04529052373172
H           1.60574460028760    2.81941685472330    0.44906589039311
H           3.92896518455537    1.60302040875586    0.30178856960440
