27
 SCF done        -42.845374822752          0.000942728168
C           2.71681066562731    0.84399722584706   -0.03254099392562
C           3.50146509821268   -0.24164353350754   -0.18343919881929
S           2.62584017166272   -1.72196661815013   -0.41347173243339
C           1.12506804235413   -0.85417413929300   -0.30796452973891
C           1.32454245893513    0.53371100606818   -0.10351752888981
C           0.20671358036678    1.36894202450251    0.00128275071632
C           0.39706196768122    2.83662381098272    0.24445372557964
C           0.65669247781664    3.57613419599228   -1.07025554800163
C          -1.04820837776069    0.76805676914597   -0.13998296524873
C          -1.08796119831346   -0.64437117804936   -0.30346237147052
N          -0.04773016893804   -1.44383757953572   -0.38918884723596
S          -2.70983095760010   -1.26234062154127   -0.36279612006793
C          -3.32508799268470    0.34261260094501   -0.18636207162058
C          -2.38167370103035    1.31456032255275   -0.09241545456186
C          -2.74852389097197    2.72540030362672   -0.01291561996523
C          -3.73977791150115    3.18641477634067    0.73678694526267
H           3.10562053608258    1.83496093985166    0.11703640539045
H           4.57346087503675   -0.27978188228505   -0.17641547609263
H           1.25063894685204    2.98009554094028    0.90968405607175
H          -0.48374097111954    3.24656412729049    0.73900500443277
H           1.56377200831437    3.20463458425364   -1.54163307168315
H           0.77064238767308    4.64216016263615   -0.88756637624576
H          -0.16653338489951    3.42797465579811   -1.76595749405694
H          -4.38794119841516    0.48818768604464   -0.19834865945184
H          -2.18655479925183    3.40186030648575   -0.64026324432988
H          -4.30892636292856    2.53987592186415    1.38414248241396
H          -4.00591830120035    4.22943859119322    0.74266593397203
