# ORCA input file
# SCF done        -37.724411151765          0.000580354652
! B3LYP/G D3BJ Opt RIJCOSX def2-SVP def2/J
* xyz 0 1
   C       -0.34040         1.17105         0.03992
   O       -1.16903         0.13527         0.04973
   C       -0.42604        -0.99469         0.02702
   C        0.90649        -0.68309         0.00135
   C        0.95939         0.74658         0.00976
   C        2.18626         1.58295        -0.00855
   F        1.89084         2.89492         0.00333
   F        2.98156         1.36520         1.05095
   F        2.94316         1.37579        -1.09768
   O        1.99831        -1.46234        -0.02781
   C        1.76696        -2.85421        -0.03371
   H       -0.75284         2.16040         0.05485
   H       -0.95272        -1.92642         0.03241
   H        2.74986        -3.31894        -0.06935
   H        1.18519        -3.15241        -0.91084
   H        1.24191        -3.16898         0.87300
*
