16
 SCF done        -37.724411151765          0.000580354652
C          -0.34039791569451    1.17105003092136    0.03991894554178
O          -1.16903187131972    0.13526606164003    0.04973250539682
C          -0.42604312443290   -0.99468751864930    0.02701655590041
C           0.90648776655943   -0.68308758187983    0.00134696315163
C           0.95939405822642    0.74658443645928    0.00975703352924
C           2.18625557802918    1.58295456135871   -0.00854573156448
F           1.89084049848857    2.89492268743259    0.00333343328041
F           2.98156220041241    1.36520226776539    1.05094604871247
F           2.94315631388468    1.37578829733731   -1.09767534726952
O           1.99830506781469   -1.46234154502350   -0.02781290078588
C           1.76695923952379   -2.85420658442358   -0.03371069824079
H          -0.75283641298348    2.16039854013641    0.05485239011031
H          -0.95271842755554   -1.92641844348642    0.03240635979216
H           2.74985687270617   -3.31894054740103   -0.06934785123839
H           1.18519076113816   -3.15241432908901   -0.91083922323384
H           1.24190939520264   -3.16898033309840    0.87300151691771
