# ORCA input file
# SCF done        -41.241579974002          0.000784547038
! B3LYP/G D3BJ Opt RIJCOSX def2-SVP def2/J
* xyz 0 1
   C        3.46274         0.16118        -0.04028
   C        3.01973         1.47287        -0.06506
   C        1.66139         1.77656        -0.05856
   C        0.75549         0.73602        -0.02634
   C        1.20860        -0.59649        -0.00127
   C        2.55553        -0.89300        -0.00811
   C        0.04034        -1.51542         0.03223
   O        0.04788        -2.72412         0.05911
   C       -1.14181        -0.61194         0.02646
   C       -0.70572         0.72636        -0.00967
   C       -1.63356         1.74764        -0.02447
   C       -2.98245         1.41872         0.00013
   C       -3.42890         0.09604         0.04203
   C       -2.47773        -0.93538         0.05171
   C       -4.86272        -0.15998         0.07370
   C       -5.45120        -1.34411         0.20127
   H        4.52273        -0.04484        -0.04579
   H        3.74089         2.27698        -0.08973
   H        1.33079         2.80427        -0.07794
   H        2.88802        -1.91984         0.01159
   H       -1.32617         2.78243        -0.05466
   H       -3.71489         2.21398        -0.01057
   H       -2.77456        -1.97191         0.07464
   H       -5.48063         0.72566        -0.00991
   H       -4.90029        -2.26278         0.29875
   H       -6.52358        -1.43507         0.21735
*
