26
 SCF done        -41.241579974002          0.000784547038
C           3.46274146284753    0.16118003025369   -0.04028278912724
C           3.01973454110041    1.47286830287197   -0.06506169260755
C           1.66138989275386    1.77656446517446   -0.05855533605808
C           0.75548591429432    0.73601934837824   -0.02633863228414
C           1.20859845278682   -0.59648728590269   -0.00126691724918
C           2.55552818427987   -0.89300452704786   -0.00810805723579
C           0.04033519172431   -1.51542295774039    0.03222869871226
O           0.04787959875350   -2.72412396784562    0.05910677720899
C          -1.14181443644224   -0.61194069376243    0.02645771614064
C          -0.70571664215839    0.72636042943092   -0.00966693337594
C          -1.63355949865915    1.74764391743633   -0.02446627656522
C          -2.98244747722427    1.41872225888975    0.00013360073934
C          -3.42889515898249    0.09603505659190    0.04203288551127
C          -2.47772635909254   -0.93537710659265    0.05171391807063
C          -4.86272101254972   -0.15998064347433    0.07370239592992
C          -5.45119690919451   -1.34411248249522    0.20126918699120
H           4.52273463864029   -0.04483515944722   -0.04579148964836
H           3.74088848810405    2.27697638643229   -0.08972800744234
H           1.33079237154626    2.80426808167815   -0.07794452634224
H           2.88801554010873   -1.91984386943724    0.01158835618182
H          -1.32616511283681    2.78243253851778   -0.05465552699099
H          -3.71489220691677    2.21398425746457   -0.01056792851507
H          -2.77455791465898   -1.97191117306263    0.07463839057816
H          -5.48062593908112    0.72565609239438   -0.00990509484858
H          -4.90028867952234   -2.26277812653125    0.29875469905261
H          -6.52357692962049   -1.43507317217512    0.21735258317368
