# ORCA input file
# SCF done        -37.766851601462          0.000652714938
! B3LYP/G D3BJ Opt RIJCOSX def2-SVP def2/J
* xyz 0 1
   C       -1.58289        -1.08277         0.70357
   S       -2.64213         0.24880         0.65459
   C       -1.41473         1.30594         0.10631
   C       -0.21239         0.65689        -0.03728
   C       -0.30772        -0.73697         0.31035
   C        0.83995        -1.54770         0.21699
   C        2.04087        -1.03118        -0.19624
   C        3.18415        -1.99698        -0.25438
   O        3.04130        -3.15453         0.04499
   O        4.37319        -1.53725        -0.64888
   C        2.12595         0.36105        -0.53866
   O        3.33609         0.86527        -0.94921
   C        1.03383         1.17423        -0.46150
   H       -1.93813        -2.04422         1.01458
   H       -1.64092         2.33662        -0.07816
   H        0.79168        -2.59578         0.47030
   H        4.34214        -0.58820        -0.85797
   H        3.24669         1.80596        -1.14486
   H        1.10999         2.22120        -0.72308
*
