19
 SCF done        -37.766851601462          0.000652714938
C          -1.58289399091362   -1.08276956001145    0.70357432615885
S          -2.64213291367376    0.24879580581329    0.65458579085971
C          -1.41472596229596    1.30593736112400    0.10631338260744
C          -0.21239445224750    0.65688695922150   -0.03728226408813
C          -0.30771812619930   -0.73697020464110    0.31034889184382
C           0.83994993094671   -1.54769597200769    0.21699042016850
C           2.04087172938587   -1.03118399333922   -0.19624159385790
C           3.18414716188996   -1.99697682395223   -0.25438314577224
O           3.04129509721513   -3.15452709821343    0.04499223882198
O           4.37318935582235   -1.53724925719319   -0.64888329241863
C           2.12595285933676    0.36104833093596   -0.53866269349419
O           3.33609063540133    0.86526841482402   -0.94920822997997
C           1.03383377224369    1.17422704271801   -0.46150042099553
H          -1.93812844227388   -2.04422229825770    1.01457955139726
H          -1.64092062746622    2.33662216056667   -0.07815905231320
H           0.79168360244597   -2.59578093948024    0.47030219031795
H           4.34214485592656   -0.58820433748332   -0.85797476689363
H           3.24668880103454    1.80595656762221   -1.14486234841682
H           1.10998671342128    2.22119784175401   -0.72307898394535
