# ORCA input file
# SCF done        -37.917628711629          0.000529628819
! B3LYP/G D3BJ Opt RIJCOSX def2-SVP def2/J
* xyz 0 1
   C       -1.91727        -1.27995         0.47095
   S       -3.08315        -0.04421         0.26882
   C       -1.85253         1.14226        -0.03547
   C       -0.59631         0.57593         0.03294
   C       -0.64278        -0.82045         0.31556
   S        0.72581        -1.92908         0.46029
   C        2.01357        -1.01101        -0.46649
   C        2.52069         0.01465         0.50789
   O        3.54913        -0.10121         1.12026
   C        1.58124         1.19129         0.74295
   O        0.53125         1.32175        -0.18895
   C       -2.24679         2.50222        -0.30351
   C       -1.44676         3.47236        -0.73603
   H       -2.21945        -2.28426         0.68583
   H        1.56719        -0.57952        -1.36005
   H        2.78600        -1.73564        -0.71635
   H        2.16908         2.11170         0.66542
   H        1.19982         1.12588         1.77169
   H       -3.29692         2.69883        -0.12963
   H       -0.40463         3.30185        -0.93596
   H       -1.82234         4.46727        -0.89945
*
