21
 SCF done        -37.917628711629          0.000529628819
C          -1.91726634485040   -1.27995164800621    0.47095173339900
S          -3.08314588873447   -0.04420981730535    0.26881526726285
C          -1.85252885168980    1.14226144754064   -0.03547007817669
C          -0.59630814305000    0.57592900165627    0.03293601339267
C          -0.64278164618632   -0.82045212282092    0.31555632673127
S           0.72580636738936   -1.92907953598501    0.46029257953400
C           2.01356749128011   -1.01101236559023   -0.46648705509842
C           2.52068546386688    0.01465479640980    0.50789307677397
O           3.54912658908574   -0.10120796835786    1.12026092165239
C           1.58124034188800    1.19128668070262    0.74295143494707
O           0.53125059437689    1.32174836286998   -0.18895132875348
C          -2.24678580304885    2.50222419408343   -0.30351249313684
C          -1.44675925628489    3.47236433294209   -0.73603325957181
H          -2.21945253955887   -2.28426056032251    0.68582715913781
H           1.56719106276163   -0.57952410199913   -1.36005252184371
H           2.78600098793255   -1.73564029047980   -0.71635384046081
H           2.16907833949409    2.11170132062473    0.66542231646874
H           1.19982117827523    1.12588425215062    1.77168730093098
H          -3.29691744999638    2.69883031873976   -0.12963034389701
H          -0.40463432627031    3.30184721558116   -0.93596396027821
H          -1.82233816668020    4.46726648756589   -0.89944924901363
