# ORCA input file
# SCF done        -38.454385593662          0.000721895793
! B3LYP/G D3BJ Opt RIJCOSX def2-SVP def2/J
* xyz 0 1
   C        3.09184        -0.05156         0.05084
   O        2.28417        -1.12866         0.15010
   C        1.03032        -0.61387         0.07503
   C        1.16154         0.79496        -0.06917
   N        2.51084         1.08248        -0.07547
   C        0.06349         1.63051        -0.17567
   C       -1.16120         0.98416        -0.13100
   C       -1.26541        -0.42936         0.01423
   C       -0.18094        -1.27695         0.12240
   O       -2.58158        -0.73769         0.02040
   C       -3.22138         0.46297        -0.11787
   N       -2.43407         1.48609        -0.20839
   C       -4.66193         0.46720        -0.15012
   C       -5.37367         1.58138        -0.28170
   H        4.15179        -0.21294         0.08577
   H        0.15341         2.69634        -0.28491
   H       -0.26976        -2.34380         0.23178
   H       -5.12124        -0.50677        -0.05992
   H       -4.88262         2.53489        -0.36920
   H       -6.44905         1.56526        -0.30439
*
