20
 SCF done        -38.454385593662          0.000721895793
C           3.09183558436867   -0.05156192109835    0.05083505030446
O           2.28416973489749   -1.12866274297600    0.15009727693131
C           1.03032144651070   -0.61387222007373    0.07503106057192
C           1.16154291916877    0.79495629338179   -0.06917381075403
N           2.51083729529303    1.08247803416231   -0.07546653516283
C           0.06348889363848    1.63051410905216   -0.17566512438631
C          -1.16119787176907    0.98416032526092   -0.13099750520553
C          -1.26541371445767   -0.42935878817836    0.01423290924757
C          -0.18094366489317   -1.27695491209739    0.12239896488470
O          -2.58157611526862   -0.73769412139884    0.02040355022735
C          -3.22138363827856    0.46296502249625   -0.11787452463455
N          -2.43406934158700    1.48608551221273   -0.20838528146264
C          -4.66193400653640    0.46719736818824   -0.15012015669248
C          -5.37367150313192    1.58138416892791   -0.28170244842411
H           4.15178640356149   -0.21293905206922    0.08576885460464
H           0.15340895245336    2.69633959102861   -0.28490947934515
H          -0.26975599447867   -2.34379574930664    0.23177890413056
H          -5.12123581223563   -0.50676989376919   -0.05991996112436
H          -4.88261803989315    2.53488709766191   -0.36919951809996
H          -6.44905152736215    1.56526187859483   -0.30439222561052
