11
 SCF done        -16.354933014469          0.000171377482
C          -0.49982098478032   -1.07804759341887    0.15002561296505
C          -1.00672540795043    0.19741792281447    0.02671751161498
C           0.23455918676111    0.88917869646083    0.11444314135601
S           1.21737206912063   -0.52896054620655    0.29416858872732
C          -2.35650184567403    0.66255918092738   -0.13705977145662
C          -2.70108246255842    1.94307731003681   -0.24467063258811
H          -0.88032533140578   -2.07613783080394    0.16726731858266
H           0.54821424218833    1.91109943965929    0.08914292669590
H          -3.10800023601200   -0.11582898960800   -0.16963836906196
H          -1.96699570712898    2.73021710461371   -0.21469882493048
H          -3.72642352256012    2.24480530552488   -0.36619750190474
