35
 SCF done        -47.998715330499          0.000825905789
C           2.60319202950365   -1.01082420523612   -0.13145186515668
C           1.23599424322693   -0.76695284430849   -0.10580772625262
N           0.18339033229101   -1.65251527613447   -0.15496597462246
C           0.34863134825881   -3.07657492520095   -0.02904022918081
C           0.45841672833055   -3.50554908940565    1.43840207073952
C           0.62230801281135   -5.01377555174063    1.56207319235242
C          -0.99396493857751   -0.93805873496048   -0.06819908702242
C          -0.68927030933729    0.44389521870934    0.01199376223090
C           0.73963501451910    0.55404299636750   -0.02942630109434
C           1.61588185738024    1.63093452415731    0.00609137478196
C           2.97240252260018    1.38010711123865   -0.02838988775011
C           3.45609687245465    0.07499364180444   -0.09301869561934
C          -1.69431882715566    1.39371127899912    0.13657092262558
C          -3.00146776285161    0.96034194739541    0.20197589458779
C          -3.30153197150956   -0.39469006421462    0.11776866055874
C          -2.32434610300106   -1.37051308039399   -0.04010921374859
C          -2.75204914274439   -2.76994831039602   -0.19659773619676
C          -3.49135186632728   -3.41396615876466    0.69090220090682
H           3.00070597194819   -2.01371766803549   -0.17731106641787
H           1.25310589772501   -3.36744945448445   -0.57120192491538
H          -0.49822407665389   -3.58357034579686   -0.48971051056039
H          -0.44492523369066   -3.18756447264752    1.96365540346047
H           1.30972169000066   -2.99764860089998    1.89680586367824
H          -0.23417068514485   -5.52550508767258    1.12893901718744
H           0.70274548568619   -5.30354658118570    2.60639853017041
H           1.51941833331152   -5.34628714506364    1.04391029128470
H           1.23906020279386    2.64136657425397    0.05963793812975
H           3.67289621430682    2.20163834431756   -0.00227266250278
H           4.52339621445696   -0.09180844207338   -0.11109556988665
H          -1.44921386883168    2.44356135345018    0.18976948158084
H          -3.80512698973522    1.67303099589031    0.31224722599889
H          -4.33414233073805   -0.71086347488235    0.15144006080592
H          -2.47859119416959   -3.25150975943283   -1.12830414495225
H          -3.78064841578467   -2.95261991105377    1.62031154876038
H          -3.82533525535273   -4.42546480259899    0.53207915603845
