33
 SCF done        -47.833957785005          0.000569772840
C          -2.59903942411417   -0.10968457554992   -1.78954141404007
S          -3.80685872514680   -0.84912032417471   -0.83569998230320
C          -2.68433678345563   -1.24210463858515    0.42803496281332
C          -1.40803252575572   -0.79757415433108    0.09425386233546
C          -1.36498609677143   -0.14817267653925   -1.18423316781648
C          -0.13974056218490    0.36250667442855   -1.67622273400321
C           0.99370228047916    0.23105461122566   -0.93177860970682
S           2.57494172858524    0.82801453872479   -1.42672183115696
C           2.33172287292363    1.29582439557705   -3.18264989745465
C           3.68068307168802    1.63651387771645   -3.78703067528474
C           0.95272746021625   -0.41315894213417    0.35013348149885
S           2.49620930217849   -0.51108786730843    1.19078969293958
C           2.04736635810347   -1.09810189860682    2.86930687746313
C           3.28055061656624   -1.03443706976744    3.75052120988337
C          -0.21644393888925   -0.91576565526439    0.84322392056785
C          -3.09711336426342   -1.92915742174694    1.61370198852601
C          -4.34032574579808   -2.33095153931009    1.87644672255684
H          -2.85668189306128    0.31299350250152   -2.73996976776546
H          -0.14084079708518    0.85336229042022   -2.63529949222410
H           1.66229248267272    2.15575830664688   -3.21650913708358
H           1.87778591452082    0.44526630910132   -3.69110433534181
H           4.13700852686990    2.46637551637557   -3.25220078950343
H           3.55894123657367    1.91687452401392   -4.83170189752315
H           4.34897442151012    0.78042396883688   -3.72861702105070
H           1.68222203839630   -2.12210941116548    2.78671850258092
H           1.26065546653998   -0.44605584359964    3.24894399142896
H           4.06886932974162   -1.66421245478079    3.34526999309115
H           3.03764246727913   -1.37832677454855    4.75371006963694
H           3.65173790006931   -0.01422823741187    3.80924114433714
H          -0.25021683091700   -1.41268182934833    1.79804995884902
H          -2.30908766186940   -2.12047545610183    2.33053947210939
H          -5.14578310236991   -2.15569760119534    1.18269450329013
H          -4.58683602323368   -2.84455414410115    2.78827039834742
