# ORCA input file
# SCF done        -47.833957785005          0.000569772840
! B3LYP/G D3BJ Opt RIJCOSX def2-SVP def2/J
* xyz 0 1
   C       -2.59904        -0.10968        -1.78954
   S       -3.80686        -0.84912        -0.83570
   C       -2.68434        -1.24210         0.42803
   C       -1.40803        -0.79757         0.09425
   C       -1.36499        -0.14817        -1.18423
   C       -0.13974         0.36251        -1.67622
   C        0.99370         0.23105        -0.93178
   S        2.57494         0.82801        -1.42672
   C        2.33172         1.29582        -3.18265
   C        3.68068         1.63651        -3.78703
   C        0.95273        -0.41316         0.35013
   S        2.49621        -0.51109         1.19079
   C        2.04737        -1.09810         2.86931
   C        3.28055        -1.03444         3.75052
   C       -0.21644        -0.91577         0.84322
   C       -3.09711        -1.92916         1.61370
   C       -4.34033        -2.33095         1.87645
   H       -2.85668         0.31299        -2.73997
   H       -0.14084         0.85336        -2.63530
   H        1.66229         2.15576        -3.21651
   H        1.87779         0.44527        -3.69110
   H        4.13701         2.46638        -3.25220
   H        3.55894         1.91687        -4.83170
   H        4.34897         0.78042        -3.72862
   H        1.68222        -2.12211         2.78672
   H        1.26066        -0.44606         3.24894
   H        4.06887        -1.66421         3.34527
   H        3.03764        -1.37833         4.75371
   H        3.65174        -0.01423         3.80924
   H       -0.25022        -1.41268         1.79805
   H       -2.30909        -2.12048         2.33054
   H       -5.14578        -2.15570         1.18269
   H       -4.58684        -2.84455         2.78827
*
