# ORCA input file
# SCF done        -17.063792936418          0.000207306269
! B3LYP/G D3BJ Opt RIJCOSX def2-SVP def2/J
* xyz 0 1
   C       -1.23547        -0.06690         0.00052
   S       -0.46903         1.47596         0.00038
   C        1.09535         0.72375         0.00244
   C        1.00388        -0.63472         0.00273
   C       -0.33671        -1.08136         0.00109
   S        2.57808         1.66470         0.00364
   H       -2.30574        -0.11521        -0.00010
   H        1.86066        -1.28299         0.00377
   H       -0.61356        -2.12020         0.00098
   H        1.98001         2.85390         0.00401
*
