10
 SCF done        -17.063792936418          0.000207306269
C          -1.23546505957119   -0.06689698310391    0.00052058097612
S          -0.46903350483268    1.47596209895774    0.00038029945672
C           1.09535137644795    0.72374760322005    0.00244212541057
C           1.00388139405939   -0.63471853631790    0.00272629084956
C          -0.33671116765024   -1.08135655416143    0.00109469997931
S           2.57807883225216    1.66470369603797    0.00364121154316
H          -2.30574355004892   -0.11520679881831   -0.00010150779866
H           1.86066295600200   -1.28299495600222    0.00376794456812
H          -0.61356437257731   -2.12019871479845    0.00098246800180
H           1.98001309591884    2.85389914498647    0.00400588701330
