# ORCA input file
# SCF done        -32.758252407902          0.000601212074
! B3LYP/G D3BJ Opt RIJCOSX def2-SVP def2/J
* xyz 0 1
   C       -1.60870        -1.11271         0.17002
   S       -2.75092         0.15833         0.21991
   C       -1.53546         1.34778         0.12450
   C       -0.28275         0.78684         0.05518
   C       -0.31671        -0.65192         0.07667
   C        0.90456        -1.39863         0.01894
   C        2.07428        -0.68636        -0.05831
   C        2.11195         0.72162        -0.07946
   C        0.96643         1.46439        -0.02572
   O        0.94627         2.82376        -0.04760
   C        0.86687        -2.85286         0.01952
   C        1.87062        -3.65814         0.34985
   H       -1.96047        -2.12301         0.21820
   H       -1.78626         2.38851         0.12624
   H        3.01331        -1.21310        -0.12850
   H        3.07124         1.21809        -0.14677
   H        1.84974         3.15886        -0.10234
   H       -0.07796        -3.28984        -0.27285
   H        2.82666        -3.28657         0.67726
   H        1.76539        -4.72883         0.31549
*
