20
 SCF done        -32.758252407902          0.000601212074
C          -1.60870406611532   -1.11271340102837    0.17001901317912
S          -2.75091798646104    0.15832739986747    0.21991152699489
C          -1.53545925225334    1.34778354958071    0.12449987187511
C          -0.28275236178843    0.78683687326797    0.05517575447949
C          -0.31671050978289   -0.65191904826026    0.07667087030834
C           0.90456459485411   -1.39862814873981    0.01894212680951
C           2.07428433192959   -0.68636213237030   -0.05830806000210
C           2.11194749559998    0.72161966116033   -0.07945916564108
C           0.96642597943539    1.46439049609738   -0.02571625383700
O           0.94626662363386    2.82376283317211   -0.04759752930768
C           0.86687262659180   -2.85285906253864    0.01952131017916
C           1.87061799275481   -3.65813890994908    0.34984661304756
H          -1.96047072986608   -2.12301101731437    0.21819726514521
H          -1.78626173803230    2.38851039669787    0.12623573917747
H           3.01330506698435   -1.21309538907681   -0.12850447586326
H           3.07123823559485    1.21808970903357   -0.14677121836817
H           1.84974085354043    3.15886193657216   -0.10233543043817
H          -0.07795508936530   -3.28983925155819   -0.27284683943838
H           2.82665910619966   -3.28656947790020    0.67726047114963
H           1.76538882654585   -4.72882701671361    0.31548841055033
