# ORCA input file
# SCF done        -62.456981610907          0.000773725886
! B3LYP/G D3BJ Opt RIJCOSX def2-SVP def2/J
* xyz 0 1
   C        1.52230        -0.76612         0.24933
   S        2.42785         0.64962        -0.06333
   C        0.98279         1.56418        -0.38500
   C       -0.13446         0.77562        -0.23197
   C        0.18161        -0.55749         0.13144
   C       -0.84896        -1.61021         0.40965
   C       -2.23638        -1.20790        -0.10080
   C       -2.34943        -1.49876        -1.59588
   F       -2.33345        -2.82030        -1.82382
   F       -3.50201        -1.03857        -2.11327
   F       -1.36876        -0.97755        -2.33961
   C       -2.56439         0.26477         0.19198
   C       -2.67346         0.50375         1.69702
   F       -3.43985        -0.41982         2.30166
   F       -1.50500         0.50595         2.34537
   F       -3.24493         1.69140         1.94669
   C       -1.54707         1.23710        -0.41930
   C        1.14777         2.95253        -0.73505
   C        0.26119         3.75953        -1.31096
   H        2.02363        -1.67703         0.50868
   H       -0.90351        -1.77941         1.48861
   H       -0.55108        -2.55633        -0.04896
   H       -2.99736        -1.84407         0.36744
   H       -3.56277         0.49226        -0.20129
   H       -1.67718         2.22353         0.03419
   H       -1.75730         1.33564        -1.48806
   H        2.13263         3.34006        -0.50480
   H       -0.71843         3.44341        -1.61595
   H        0.51381         4.78453        -1.52019
*
