11
 SCF done        -17.251035842310          0.000984079784
C          -1.61784798172505   -0.14561216982604   -0.01961266569663
S          -0.18758890689314   -1.11805378649978    0.02789142396353
C           0.81436074802998    0.30388478774613    0.05635233441541
C           0.06284964596084    1.44087426929227    0.02767262718955
C          -1.32610316616204    1.17515367604614   -0.01369075958212
N           2.18273400256960    0.18738230462699    0.18199480288043
H          -2.57333740871433   -0.62850255341231   -0.04559983473804
H           0.48498161588459    2.42951454139674    0.03805914456274
H          -2.07423403884615    1.94752119869139   -0.04092392018296
H           2.57321671838106   -0.68758498282468   -0.13079972274081
H           2.70517877151465    0.99357271476315   -0.12737343007110
