# ORCA input file
# SCF done        -17.251035842310          0.000984079784
! B3LYP/G D3BJ Opt RIJCOSX def2-SVP def2/J
* xyz 0 1
   C       -1.61785        -0.14561        -0.01961
   S       -0.18759        -1.11805         0.02789
   C        0.81436         0.30388         0.05635
   C        0.06285         1.44087         0.02767
   C       -1.32610         1.17515        -0.01369
   N        2.18273         0.18738         0.18199
   H       -2.57334        -0.62850        -0.04560
   H        0.48498         2.42951         0.03806
   H       -2.07423         1.94752        -0.04092
   H        2.57322        -0.68758        -0.13080
   H        2.70518         0.99357        -0.12737
*
