16
 SCF done        -33.748011189484          0.000994686476
C           0.92767248683393    0.91881318619793    0.63692631425764
S           1.37733851350920    0.10987085095310   -0.80499488652931
C          -0.38205916249274   -0.05649841562762   -1.35011076082870
O          -0.64586727641645   -0.60001304254263   -2.38449935912787
C          -1.19308532898506    0.55549130005601   -0.32922523100902
C          -0.41601097266250    1.08240997206204    0.76081537889817
C          -1.17649738300144    1.70681169790840    1.81578413937306
O          -0.84001049725685    2.22879954786787    2.83570339118214
S          -2.93294603420527    1.56801434237575    1.30852607265876
C          -2.55307818792874    0.73816775789762   -0.18579219637899
C          -3.67612044688487    0.39106371291353   -1.01075310237156
C          -3.63184230180685   -0.23119945765781   -2.19023599300864
H           1.67939889263596    1.23932528747592    1.33390529973861
H          -4.63040784498708    0.68916233160104   -0.59239509616724
H          -2.70941326461894   -0.54789020263930   -2.64425454278932
H          -4.54077119173233   -0.43908886884178   -2.72886942789761
