# ORCA input file
# SCF done        -33.748011189484          0.000994686476
! B3LYP/G D3BJ Opt RIJCOSX def2-SVP def2/J
* xyz 0 1
   C        0.92767         0.91881         0.63693
   S        1.37734         0.10987        -0.80499
   C       -0.38206        -0.05650        -1.35011
   O       -0.64587        -0.60001        -2.38450
   C       -1.19309         0.55549        -0.32923
   C       -0.41601         1.08241         0.76082
   C       -1.17650         1.70681         1.81578
   O       -0.84001         2.22880         2.83570
   S       -2.93295         1.56801         1.30853
   C       -2.55308         0.73817        -0.18579
   C       -3.67612         0.39106        -1.01075
   C       -3.63184        -0.23120        -2.19024
   H        1.67940         1.23933         1.33391
   H       -4.63041         0.68916        -0.59240
   H       -2.70941        -0.54789        -2.64425
   H       -4.54077        -0.43909        -2.72887
*
