# ORCA input file
# SCF done        -35.391900042274          0.000504117592
! B3LYP/G D3BJ Opt RIJCOSX def2-SVP def2/J
* xyz 0 1
   C       -1.22802         1.19328        -0.22247
   C        0.00133         0.68916         0.03201
   C       -0.12383        -0.74817         0.01419
   C       -1.51451        -1.04589        -0.26874
   O       -2.12259        -2.06830        -0.38842
   O       -2.13075         0.21119        -0.40174
   C        1.11125        -1.27408         0.27376
   O        2.01326        -0.26693         0.45477
   C        1.40201         0.97981         0.32086
   O        2.01025         1.99918         0.43933
   C        1.52570        -2.64241         0.37147
   C        2.77994        -3.00349         0.64805
   H       -1.58913         2.20214        -0.30079
   H        0.73832        -3.36351         0.20491
   H        3.54651        -2.26410         0.81062
   H        3.06608        -4.03815         0.71595
*
