16
 SCF done        -35.391900042274          0.000504117592
C          -1.22801900629794    1.19328104229243   -0.22246832336025
C           0.00132851805650    0.68916090061367    0.03200922568564
C          -0.12382719387109   -0.74816734388080    0.01418703037584
C          -1.51451355215487   -1.04589148379520   -0.26873785734834
O          -2.12259088620555   -2.06830329493626   -0.38841883246460
O          -2.13074688479104    0.21119179143484   -0.40173662673331
C           1.11125006963105   -1.27407597951527    0.27376099527212
O           2.01326097282968   -0.26693282872914    0.45477320735954
C           1.40200530107037    0.97981264062753    0.32086032689737
O           2.01024630693024    1.99918491966613    0.43932688046823
C           1.52569516600945   -2.64241409992297    0.37146547550098
C           2.77993620264550   -3.00349462351004    0.64804898484672
H          -1.58912600240737    2.20213974114812   -0.30078932230334
H           0.73831500387350   -3.36351216609870    0.20490611493566
H           3.54650821064078   -2.26410284508193    0.81062187990877
H           3.06607777404078   -4.03814637031239    0.71595084095897
