# ORCA input file
# SCF done        -46.489891097011          0.000262277120
! B3LYP/G D3BJ Opt RIJCOSX def2-SVP def2/J
* xyz 0 1
   C       -1.67123        -1.24752         0.22771
   S       -2.80475         0.01982         0.32017
   C       -1.59192         1.21719         0.19225
   C       -0.33739         0.66566         0.08014
   C       -0.38492        -0.77309         0.10117
   C        0.81939        -1.50538        -0.00331
   C        1.99697        -0.83271        -0.12306
   C        3.29833        -1.57375        -0.23554
   F        3.13227        -2.90815        -0.20349
   F        3.95037        -1.31368        -1.38086
   F        4.14997        -1.28702         0.76317
   C        2.05555         0.60326        -0.14686
   O        3.30468         1.10807        -0.27346
   C        3.46581         2.50538        -0.31226
   C        0.90510         1.33331        -0.04559
   H       -1.99745        -2.26701         0.26985
   H       -1.86174         2.25366         0.20587
   H        0.79463        -2.58377         0.01271
   H        4.53510         2.67202        -0.42687
   H        3.12066         2.97153         0.61585
   H        2.93453         2.94385        -1.16265
   H        0.91111         2.41055        -0.05825
*
