# ORCA input file
# SCF done        -43.772835563657          0.000598390137
! B3LYP/G D3BJ Opt RIJCOSX def2-SVP def2/J
* xyz 0 1
   C       -1.48088        -1.19051         0.15694
   S       -2.65002         0.04581         0.25254
   C       -1.47492         1.27574         0.16462
   C       -0.20090         0.76040         0.06286
   C       -0.20599        -0.68186         0.05849
   C        1.01715        -1.38649        -0.04061
   C        2.18247        -0.68766        -0.13037
   C        3.50050        -1.40179        -0.23879
   F        3.36374        -2.73716        -0.22460
   F        4.15170        -1.10452        -1.37587
   F        4.33226        -1.10018         0.77207
   C        2.19445         0.74529        -0.12685
   C        3.42018         1.44676        -0.22269
   N        4.39464         2.04429        -0.29764
   C        1.02430         1.45390        -0.03152
   H       -1.77958        -2.21912         0.17692
   H       -1.76795         2.30587         0.19078
   H        1.01316        -2.46535        -0.04404
   H        1.03730         2.53310        -0.02877
*
