19
 SCF done        -43.772835563657          0.000598390137
C          -1.48088088441334   -1.19050986202682    0.15693975041174
S          -2.65002064130550    0.04581456000562    0.25253832398168
C          -1.47491797029133    1.27574309235604    0.16462016148921
C          -0.20090109317614    0.76039702095292    0.06286173970108
C          -0.20598896132629   -0.68186052793085    0.05848818098335
C           1.01715228562463   -1.38648979710772   -0.04061087381588
C           2.18246598055732   -0.68765685910577   -0.13036902346766
C           3.50049878225543   -1.40179408079808   -0.23878900996482
F           3.36374179831510   -2.73715840340053   -0.22459745577316
F           4.15170157342018   -1.10451702106597   -1.37586792407462
F           4.33226468628166   -1.10018130983083    0.77206801777121
C           2.19444873625120    0.74528514681627   -0.12685061305662
C           3.42018011962090    1.44676334010221   -0.22269241888498
N           4.39464399137514    2.04429239027299   -0.29763627251789
C           1.02429781087357    1.45390271074164   -0.03151827591969
H          -1.77958276661897   -2.21911502481077    0.17691962293589
H          -1.76795229348092    2.30587000401751    0.19078440514043
H           1.01316181423923   -2.46535492754997   -0.04404053751109
H           1.03729703179811    2.53309954836210   -0.02876779742818
