30
 SCF done        -43.632010681399          0.000362306155
C          -3.44614331539413   -0.78327865615486   -0.11851847984388
C          -2.37229319343717   -1.59627921276252   -0.11542483891970
C          -1.13191151637326   -0.88644191777173   -0.09752049686204
C          -1.33743815678278    0.51426102667230   -0.08712969335801
S          -3.04235680383739    0.89945441137614   -0.09928904262862
C          -0.31032992612390    1.44176461422451   -0.06859383965388
C          -0.58765827948827    2.91444488611759   -0.01708369317012
C          -0.59617959779956    3.40983890229666    1.43036095894136
C           0.98852974976105    0.92565668607168   -0.04744743117199
C           1.19405355514605   -0.47491005430769   -0.05793524783471
C           0.16712619224615   -1.40237932562255   -0.08896581964601
C           0.44468932694902   -2.87559356160661   -0.05676197624430
C           0.42939324722387   -3.39580520670656    1.38194018104571
S           2.89855277436958   -0.86032078745184   -0.02264951949748
C           3.30227963725308    0.82242668760533    0.00054191560613
C           2.22858660742095    1.63548182517861   -0.01437823432873
H          -4.48311407975673   -1.05812768806602   -0.12933048779234
H          -2.44539820707771   -2.66879150558791   -0.12364083256937
H          -1.56269919216208    3.11033953303285   -0.46893726618300
H           0.16790898042364    3.45768237996820   -0.58704893226429
H          -1.36643711994590    2.89332451333254    1.99845815250528
H          -0.79830961925009    4.47765099123483    1.46383903721443
H           0.36497422930691    3.22072288008724    1.90344879103134
H           1.42744489730346   -3.06326804578437   -0.49516092164191
H          -0.30040240525256   -3.40972093870815   -0.64845982757794
H           1.18977084353892   -2.88879249831906    1.97146551685046
H           0.63173050710329   -4.46399117712643    1.40067349774277
H          -0.53966078175596   -3.21511282675176    1.84204310932373
H           4.33898334567292    1.09719385800711    0.02799997025518
H           2.30140830071858    2.70795020752249   -0.00028454932822
