# ORCA input file
# SCF done        -36.944033157655          0.000747464056
! B3LYP/G D3BJ Opt RIJCOSX def2-SVP def2/J
* xyz 0 1
   C        1.32401        -1.32974         0.38550
   S        2.59130        -0.17705         0.34812
   C        1.46981         1.10670        -0.02227
   C        0.18254         0.62659        -0.08714
   C        0.10572        -0.77254         0.14504
   C       -1.18514        -1.53291         0.15882
   C       -2.32025        -0.71012        -0.44534
   C       -2.30837         0.72457         0.10805
   C       -2.40198         0.66912         1.61141
   O       -3.42409         0.56943         2.22987
   C       -1.04098         1.44836        -0.34953
   C        2.01618         2.42971        -0.18939
   C        1.44561         3.47087        -0.78949
   H        1.54950        -2.35845         0.58600
   H       -1.43326        -1.79353         1.19301
   H       -1.06810        -2.47006        -0.39063
   H       -3.27770        -1.18258        -0.22152
   H       -2.20692        -0.66162        -1.53063
   H       -3.19551         1.24620        -0.26630
   H       -1.42232         0.72000         2.12795
   H       -0.95585         2.41195         0.15954
   H       -1.12029         1.64611        -1.42343
   H        3.01617         2.54222         0.21179
   H        0.47795         3.42662        -1.25348
   H        1.95827         4.41528        -0.85000
*
