25
 SCF done        -36.944033157655          0.000747464056
C           1.32400854334234   -1.32973592891686    0.38550271150326
S           2.59129767538689   -0.17704937320640    0.34812300758100
C           1.46980509245256    1.10669500738942   -0.02227191112681
C           0.18253694128418    0.62659039070203   -0.08713803429275
C           0.10572355560193   -0.77254394677636    0.14504424175700
C          -1.18513521490925   -1.53290625952414    0.15882475645913
C          -2.32025169201387   -0.71012237095356   -0.44533976630652
C          -2.30837167214373    0.72457173231308    0.10804576515073
C          -2.40198236984452    0.66911728002470    1.61140949113737
O          -3.42409424406517    0.56942529707408    2.22987015067457
C          -1.04098343401182    1.44835726136510   -0.34952546829865
C           2.01617663972957    2.42970990236905   -0.18939309697560
C           1.44560833713992    3.47086955709466   -0.78948529369883
H           1.54950249367680   -2.35844737697475    0.58599892669484
H          -1.43326458785733   -1.79353381380335    1.19300661448069
H          -1.06810328866605   -2.47006133792527   -0.39062931448294
H          -3.27769971708030   -1.18257512038543   -0.22152447634913
H          -2.20692205881533   -0.66161679071913   -1.53063329943338
H          -3.19551314967281    1.24619923668627   -0.26630366317764
H          -1.42232159090301    0.72000272128256    2.12795207124808
H          -0.95585165982271    2.41195207684274    0.15954151463924
H          -1.12029416593877    1.64611095744763   -1.42343439674263
H           3.01616524481792    2.54222457398173    0.21179214733216
H           0.47794818906138    3.42661570262369   -1.25348397173757
H           1.95826613325121    4.41528062198862   -0.84999870603568
