20
 SCF done        -45.441768567274          0.000510527811
C          -1.66131515193526   -0.96125516284595    0.35850522745868
S          -2.74630923868741    0.35571670817860    0.27459392663657
C          -1.49169807569517    1.47741957208727    0.03394186693252
C          -0.25505220422007    0.86601799463681    0.01698844747400
C          -0.35736446156415   -0.56152656177794    0.20702056658418
C           0.84301687481645   -1.35059426924172    0.22042554821217
C           0.73498071003106   -2.78544021321334    0.40658716183681
O          -0.28944232117892   -3.42058156693160    0.51059073697261
C           2.07300877620684   -3.58360452572511    0.48642563791963
F           2.86984768350946   -3.15442318358038    1.48264724750067
F           1.84377143601494   -4.87594031480641    0.70489790204324
F           2.79391160807028   -3.50137993773996   -0.64719730684532
C           2.05197445129547   -0.70153452699090    0.04925922338273
C           2.13066979147036    0.68767624065559   -0.13715232230137
C           1.00792833745917    1.46791241864375   -0.15545466830017
H          -2.03593324750654   -1.95150566835857    0.51355001819501
H          -1.70901843213125    2.52007125583383   -0.08194959466321
H           2.97880297200366   -1.25123825087956    0.04823740320481
H           3.10352383710823    1.13567634113016   -0.26776254775200
H           1.07012665493288    2.53597365092541   -0.29945447449163
