23
 SCF done        -45.843030474503          0.000700301559
C           1.52634915022899    1.19365138390171   -0.77096555812706
S           2.73771695432727   -0.00947896115793   -0.60171322169080
C           1.56604312554884   -1.16211367163766   -0.10857611271856
C           0.31014226658965   -0.64213980840459   -0.07792186841139
C           0.28693743796508    0.72624619535358   -0.46416718904421
C          -0.97753123176539    1.52510538276021   -0.56110388286614
C          -2.12448320637641    0.86420101688375    0.21160530378404
C          -1.99563942092046    1.14378048272296    1.70579295599791
F          -2.26574534934769    2.43203229256925    1.97234303708457
F          -2.86499272294954    0.41783711329704    2.43140044615870
F          -0.78511578094969    0.90314138847549    2.21965552464901
C          -2.19260210431988   -0.64832888385799   -0.07811341343892
C          -2.39408237071966   -0.83695559062093   -1.49912755600339
N          -2.54487103289102   -0.99916356150370   -2.61953273814986
C          -0.91525965674727   -1.38285718153984    0.36000565117745
H           1.79756173841595    2.17933239682582   -1.09182655256931
H           1.87206191789655   -2.15940480836277    0.13593149407672
H          -1.27106668496885    1.59962437367307   -1.61299950292579
H          -0.81450781723429    2.54076138422120   -0.19230277185448
H          -3.07503429724549    1.32578660067417   -0.08259544453500
H          -3.05733508214623   -1.08236451060702    0.43951979150560
H          -0.91412204315673   -2.39314111926856   -0.05686909846004
H          -0.91193378923414   -1.48035191439777    1.44994070636078
