20
 SCF done        -28.391071940715          0.000517304708
C           1.00766843002910   -0.38105504411221   -0.14074148846882
C           0.29706350020034    0.80999384148113   -0.20886617090255
O           0.86614339296725    2.02150084224270   -0.47485350387818
C           2.25116325542273    2.08518524544567   -0.70180369085762
C          -1.09615298609097    0.81020288453928    0.01578112622758
C          -1.72094836073780   -0.40100776281304    0.29383441707721
C          -1.00813119231694   -1.58345196249437    0.36106510762190
C           0.35696088624764   -1.57015128632471    0.14419842880918
C          -1.82806104463298    2.06844672985122   -0.07032206353836
C          -3.04314417699182    2.30063526930391    0.41072339281014
H           2.07312729524687   -0.39677773382349   -0.30896621931610
H           2.54578636940459    1.49526221876371   -1.57597820266949
H           2.81911264391990    1.74959228125236    0.17203272365820
H           2.46965956386714    3.13577006263220   -0.88846550538268
H          -2.78899262812881   -0.41577350768109    0.44463163386503
H          -1.51621826401189   -2.51155004489037    0.57494994551847
H           0.92594416719311   -2.48699182535787    0.18976113460600
H          -1.28868588185974    2.86602814389901   -0.56234870229538
H          -3.61390324376695    1.55514998135831    0.93909577718339
H          -3.51298172596074    3.26310166672760    0.30100185993201
