# ORCA input file
# SCF done        -28.391071940715          0.000517304708
! B3LYP/G D3BJ Opt RIJCOSX def2-SVP def2/J
* xyz 0 1
   C        1.00767        -0.38106        -0.14074
   C        0.29706         0.80999        -0.20887
   O        0.86614         2.02150        -0.47485
   C        2.25116         2.08519        -0.70180
   C       -1.09615         0.81020         0.01578
   C       -1.72095        -0.40101         0.29383
   C       -1.00813        -1.58345         0.36107
   C        0.35696        -1.57015         0.14420
   C       -1.82806         2.06845        -0.07032
   C       -3.04314         2.30064         0.41072
   H        2.07313        -0.39678        -0.30897
   H        2.54579         1.49526        -1.57598
   H        2.81911         1.74959         0.17203
   H        2.46966         3.13577        -0.88847
   H       -2.78899        -0.41577         0.44463
   H       -1.51622        -2.51155         0.57495
   H        0.92594        -2.48699         0.18976
   H       -1.28869         2.86603        -0.56235
   H       -3.61390         1.55515         0.93910
   H       -3.51298         3.26310         0.30100
*
