25
 SCF done        -45.385725928441          0.000638207743
C          -2.69240120701766   -1.21319088241953    0.07186887323775
S          -3.89041537997871   -0.00604029871263    0.03420172673557
C          -2.70286404260395    1.26998880648825   -0.09038785900990
C          -1.41814549371843    0.74063467226577   -0.09378814584512
C          -1.43366311076398   -0.68837385837594    0.00112319986782
C          -0.23863664781099   -1.53810437050511    0.02651456079770
O          -0.29856244974596   -2.75262319264606    0.07858489140818
C           1.03960254444984   -0.80042546640478   -0.00313375808561
C           2.22954202572164   -1.52151819472087    0.05960253730968
C           3.44870030586819   -0.87140966935436    0.04676212293199
C           3.48974475320024    0.51328781796487   -0.03061826642292
C           2.31438708174436    1.23713243817463   -0.09980998489715
C           1.07686886015711    0.59620917550190   -0.08725035078772
C          -0.13779294860256    1.44967189021247   -0.17592735310410
O          -0.01990626565362    2.65489592412119   -0.31092915353273
C          -3.28814395106672    2.58625377813793   -0.15321890460352
C          -2.68410470918629    3.76387071831509   -0.30056076573062
H          -2.94829974266123   -2.25180690448742    0.14718577913671
H           2.16700813643526   -2.59808880286208    0.11946649756932
H           4.36523969091761   -1.43993184395186    0.09717244095449
H           4.43919008481566    1.02759430641314   -0.03851027811070
H           2.32823650534070    2.31514600931705   -0.16476010554172
H          -4.36997706715336    2.55804160786822   -0.07186097642144
H          -1.61768258426668    3.85714047748562   -0.39230398084641
H          -3.26655438842081    4.66925586217430   -0.33096274700953
