# ORCA input file
# SCF done        -44.073501512967          0.000740284846
! B3LYP/G D3BJ Opt RIJCOSX def2-SVP def2/J
* xyz 0 1
   C        1.65939         0.56877        -0.01131
   C        0.98655         1.78568        -0.09348
   O        1.74950         2.86856        -0.43258
   C        1.12088         4.12144        -0.53511
   C       -0.37437         1.81954         0.16234
   C       -1.07987         0.66333         0.49969
   C       -0.38524        -0.56258         0.57117
   C        0.98047        -0.58830         0.31561
   O       -1.12176        -1.66056         0.90576
   C       -0.48603        -2.91804         0.98965
   C       -1.54483        -3.94217         1.36827
   C       -2.50383         0.67688         0.76569
   C       -3.27741         1.75398         0.97429
   C       -4.69017         1.66443         1.23331
   C       -5.47009         2.71816         1.46804
   H        2.71853         0.54738        -0.21154
   H        1.90651         4.82400        -0.80942
   H        0.67852         4.42993         0.41806
   H        0.34872         4.12312        -1.31181
   H       -0.92077         2.74493         0.09036
   H        1.53368        -1.51253         0.36745
   H        0.30463        -2.89316         1.75270
   H       -0.03368        -3.18053         0.02297
   H       -1.99798        -3.67190         2.31782
   H       -1.09357        -4.92609         1.45487
   H       -2.32197        -3.97154         0.60955
   H       -2.95880        -0.30302         0.81632
   H       -2.86140         2.75227         0.96897
   H       -5.11384         0.66828         1.23156
   H       -5.07513         3.72087         1.47813
   H       -6.52427         2.61832         1.65953
*
