31
 SCF done        -44.073501512967          0.000740284846
C           1.65938711488196    0.56876699168166   -0.01131469865155
C           0.98654666971935    1.78568011487433   -0.09348047881209
O           1.74950490123238    2.86856393003108   -0.43258347833966
C           1.12088248208894    4.12143919112973   -0.53510943873411
C          -0.37436843948913    1.81953885195982    0.16234075568477
C          -1.07986602701834    0.66333426481651    0.49969101084120
C          -0.38524484737115   -0.56257644215455    0.57116622785246
C           0.98046735006395   -0.58829951402245    0.31561007093056
O          -1.12175675813773   -1.66055833225207    0.90576485170573
C          -0.48602539986414   -2.91804289497181    0.98965249636381
C          -1.54482553229033   -3.94216529151142    1.36826747362212
C          -2.50383362380218    0.67687775654603    0.76568608822423
C          -3.27741231916467    1.75397942553115    0.97428505640095
C          -4.69017408622579    1.66443278512754    1.23330635537208
C          -5.47009407059885    2.71816075335054    1.46803815248511
H           2.71852863093319    0.54738382811921   -0.21153702597191
H           1.90650890081242    4.82400056894265   -0.80942210703114
H           0.67852437198332    4.42992868601435    0.41805686232597
H           0.34871671332135    4.12312236820719   -1.31181448960529
H          -0.92077123773247    2.74493137476530    0.09036301778872
H           1.53367824751342   -1.51253218504525    0.36744886874602
H           0.30462524019287   -2.89316023902214    1.75269663952836
H          -0.03368034809697   -3.18053114018601    0.02296868971019
H          -1.99797841180455   -3.67189767343026    2.31781926941748
H          -1.09357145576272   -4.92609171210521    1.45487454440504
H          -2.32196551974121   -3.97153840074856    0.60955488210504
H          -2.95879683658166   -0.30301937628301    0.81632371254255
H          -2.86140243175858    2.75227313217233    0.96896647547974
H          -5.11384330414602    0.66828386442925    1.23156077009730
H          -5.07513065604849    3.72086639071450    1.47813245687185
H          -6.52426931710856    2.61831892331871    1.65952698864406
