# ORCA input file
# SCF done        -17.891949009584          0.000218415653
! B3LYP/G D3BJ Opt RIJCOSX def2-SVP def2/J
* xyz 0 1
   C       -1.13982        -0.04586        -0.00042
   O       -0.36001         1.04942        -0.00345
   C        0.91347         0.63160        -0.00175
   C        0.98045        -0.72635         0.00275
   C       -0.36816        -1.17210         0.00309
   S       -0.94693        -2.82958         0.00756
   H       -2.20207         0.08800        -0.00118
   H        1.67987         1.38092        -0.00377
   H        1.85943        -1.33773         0.00519
   H        0.26826        -3.37290         0.01219
*
