10
 SCF done        -17.891949009584          0.000218415653
C          -1.13982328930093   -0.04585813121964   -0.00041679284428
O          -0.36000682241322    1.04942174007701   -0.00344594086121
C           0.91347156256880    0.63159933410949   -0.00174682825174
C           0.98044968618937   -0.72635094669102    0.00275324813810
C          -0.36815647522157   -1.17209559533853    0.00308628485250
S          -0.94692684620116   -2.82957942324342    0.00755991443180
H          -2.20207035840839    0.08800213468746   -0.00117888760221
H           1.67986861783181    1.38092199543484   -0.00376958302139
H           1.85943387389494   -1.33772530077020    0.00518832130350
H           0.26826005106037   -3.37289580704599    0.01219026385493
