# ORCA input file
# SCF done        -37.087833697352          0.000791236751
! B3LYP/G D3BJ Opt RIJCOSX def2-SVP def2/J
* xyz 0 1
   C       -2.66243        -0.69585         0.04339
   C       -1.47222        -1.41639         0.01731
   C       -0.29308        -0.70245        -0.01967
   C       -0.29299         0.69520        -0.03155
   C        1.11809         1.15396        -0.07704
   O        1.55964         2.27458        -0.10211
   N        1.88139        -0.00436        -0.09757
   C        1.11796        -1.16208        -0.05742
   O        1.55938        -2.28302        -0.06353
   C        3.32886        -0.00452        -0.11183
   C        3.89609         0.00161         1.30318
   C       -1.47203         1.40983        -0.00676
   C       -2.66234         0.69000         0.03157
   H       -3.60252        -1.22591         0.07300
   H       -1.46456        -2.49504         0.02517
   H        3.64950         0.88797        -0.65466
   H        3.64983        -0.90161        -0.64684
   H        3.56360         0.88885         1.83700
   H        4.98156         0.00293         1.26403
   H        3.56595        -0.88243         1.84369
   H       -1.46421         2.48845        -0.01728
   H       -3.60236         1.22062         0.05212
*
