22
 SCF done        -37.087833697352          0.000791236751
C          -2.66243090391633   -0.69584904982470    0.04339497514279
C          -1.47221550414247   -1.41639242262864    0.01730824211768
C          -0.29307723219466   -0.70245064945483   -0.01966500625779
C          -0.29299058304915    0.69519876738862   -0.03154545641784
C           1.11808736686988    1.15395528361912   -0.07704241409715
O           1.55964432160829    2.27458120143463   -0.10211323600378
N           1.88138920738752   -0.00435989845455   -0.09756738941416
C           1.11796322109256   -1.16207594005025   -0.05741920151406
O           1.55937742361775   -2.28302029313697   -0.06353083783068
C           3.32885957262359   -0.00451592144305   -0.11183197815104
C           3.89609087713918    0.00161274648172    1.30317838706539
C          -1.47202543778986    1.40983380383898   -0.00676489146295
C          -2.66234027821099    0.69000260649648    0.03157428313770
H          -3.60251965717870   -1.22591349879996    0.07299922038740
H          -1.46455925277370   -2.49503668792293    0.02517087479027
H           3.64950084122798    0.88797210022937   -0.65465754448768
H           3.64983289189997   -0.90160801179139   -0.64683946857417
H           3.56360446534468    0.88885218282269    1.83700125937165
H           4.98156052544425    0.00292618997573    1.26403435290718
H           3.56594640610554   -0.88242669844642    1.84369148885302
H          -1.46420977561737    2.48845390671248   -0.01728406467134
H          -3.60235849548795    1.22062028295388    0.05211840510955
