23
 SCF done        -37.864025879349          0.000840178603
C          -1.76485371606010   -1.16860695041514    0.09450243908874
S          -2.99637765717989    0.01471194531764    0.01643860987824
C          -1.86548672805360    1.29643785651306    0.03182580768913
C          -0.57231743042622    0.83484374292202    0.09650878877227
C          -0.51476884083185   -0.60011867776631    0.13238147397541
C           0.74505343988143   -1.24351679527962    0.18673463627973
C           1.89749966559851   -0.51274529605219    0.21253982887437
O           3.14718873359187   -1.07232447487445    0.22140920361180
C           3.25625894714726   -2.47238749572558    0.19500876017758
C           1.84278699192961    0.93131890068760    0.20950440702216
O           2.93016114026555    1.75529717505441    0.21185130277201
C           4.16215432275855    1.34389782475728    0.76240097708156
C           0.63406547134229    1.56711047283554    0.14637426634690
H          -2.02515144623527   -2.20783763609277    0.10682381519282
H          -2.20771459090881    2.31066455379169   -0.00390496196036
H           0.76093874689904   -2.32127445567370    0.19063724558053
H           2.80394219928591   -2.89381058181795   -0.70845933237977
H           2.79809800466657   -2.92879267308786    1.07823171758404
H           4.32506712599441   -2.68193728245342    0.19514254646945
H           4.73296687231011    2.26281134995456    0.89830458894328
H           4.70566857001200    0.67576024141693    0.09114772547711
H           4.02935047838357    0.85382223115751    1.72964877452925
H           0.61552969962927    2.64493602483112    0.13066737899342
