# ORCA input file
# SCF done        -37.864025879349          0.000840178603
! B3LYP/G D3BJ Opt RIJCOSX def2-SVP def2/J
* xyz 0 1
   C       -1.76485        -1.16861         0.09450
   S       -2.99638         0.01471         0.01644
   C       -1.86549         1.29644         0.03183
   C       -0.57232         0.83484         0.09651
   C       -0.51477        -0.60012         0.13238
   C        0.74505        -1.24352         0.18673
   C        1.89750        -0.51275         0.21254
   O        3.14719        -1.07232         0.22141
   C        3.25626        -2.47239         0.19501
   C        1.84279         0.93132         0.20950
   O        2.93016         1.75530         0.21185
   C        4.16215         1.34390         0.76240
   C        0.63407         1.56711         0.14637
   H       -2.02515        -2.20784         0.10682
   H       -2.20771         2.31066        -0.00390
   H        0.76094        -2.32127         0.19064
   H        2.80394        -2.89381        -0.70846
   H        2.79810        -2.92879         1.07823
   H        4.32507        -2.68194         0.19514
   H        4.73297         2.26281         0.89830
   H        4.70567         0.67576         0.09115
   H        4.02935         0.85382         1.72965
   H        0.61553         2.64494         0.13067
*
