# ORCA input file
# SCF done        -26.229294132401          0.000331076068
! B3LYP/G D3BJ Opt RIJCOSX def2-SVP def2/J
* xyz 0 1
   C        2.06575         0.64142        -0.11634
   C        2.06032        -0.68610        -0.10854
   O        0.92692        -1.46556        -0.06574
   C       -0.22692        -0.72763        -0.03280
   C       -0.22107         0.70254        -0.04123
   C       -1.46739         1.23065        -0.00422
   S       -2.67425        -0.00204         0.04337
   C       -1.47752        -1.24505         0.01034
   O        0.93876         1.43058        -0.08279
   H        2.96727         1.22644        -0.15046
   H        2.95702        -1.27884        -0.13571
   H       -1.74459         2.26401        -0.00128
   H       -1.76316        -2.27600         0.02538
*
