22
 SCF done        -37.063285455475          0.000531422718
C           3.35285570823514    0.21133376986241    0.02590736735002
S           2.65227343446442   -1.37211053460908    0.04071180515722
C           1.04412857981788   -0.69313308579099    0.01234649595778
C          -0.13858051219454   -1.42989492565169   -0.00250953587587
C          -1.31558476525853   -0.66882875604008   -0.00634049572525
C          -2.71171785505945   -0.97437184862236    0.05119961494083
C          -3.35858927577088    0.21286216795296    0.04154598527580
O          -2.51138417028557    1.26576518085837   -0.01339843399103
C          -1.25893448644332    0.74830406064534   -0.03016009161645
C          -0.08070310879185    1.46473607308673   -0.04566372902075
C           1.09572416613157    0.72128374603971   -0.01818043441361
C           2.44084479392646    1.20168948563009   -0.00839796612616
C          -0.09236849710339   -2.88416815186038   -0.00795944864693
C          -0.98461478020574   -3.68630260224306   -0.57399063360834
H           4.42208528686025    0.29540071224178    0.04212434756640
H          -3.16407419014818   -1.94144953170313    0.11710796053104
H          -4.40562678973618    0.44580525269860    0.07107836008856
H          -0.07010791809662    2.54184212006202   -0.06746336736203
H           2.68887439324907    2.24795318841287   -0.02487526503128
H           0.79092141023893   -3.30622842398613    0.45808343963624
H          -1.84206582254623   -3.30810507576862   -1.10258872419723
H          -0.86974560128323   -4.75637282121540   -0.55037725088902
