# ORCA input file
# SCF done        -37.063285455475          0.000531422718
! B3LYP/G D3BJ Opt RIJCOSX def2-SVP def2/J
* xyz 0 1
   C        3.35286         0.21133         0.02591
   S        2.65227        -1.37211         0.04071
   C        1.04413        -0.69313         0.01235
   C       -0.13858        -1.42989        -0.00251
   C       -1.31558        -0.66883        -0.00634
   C       -2.71172        -0.97437         0.05120
   C       -3.35859         0.21286         0.04155
   O       -2.51138         1.26577        -0.01340
   C       -1.25893         0.74830        -0.03016
   C       -0.08070         1.46474        -0.04566
   C        1.09572         0.72128        -0.01818
   C        2.44084         1.20169        -0.00840
   C       -0.09237        -2.88417        -0.00796
   C       -0.98461        -3.68630        -0.57399
   H        4.42209         0.29540         0.04212
   H       -3.16407        -1.94145         0.11711
   H       -4.40563         0.44581         0.07108
   H       -0.07011         2.54184        -0.06746
   H        2.68887         2.24795        -0.02488
   H        0.79092        -3.30623         0.45808
   H       -1.84207        -3.30811        -1.10259
   H       -0.86975        -4.75637        -0.55038
*
