16
 SCF done        -31.115150220856          0.000833144128
C           2.79918473598499   -0.52902798673519    0.00581150448624
N           1.74229695789100   -1.29157964960809    0.00609693920464
C           0.68347776781819   -0.43593072172490    0.00780621615014
C           1.16014672044520    0.97550625793002    0.00899375214160
C           0.01087415983825    1.90630518220162    0.01020622973984
O           0.01468057304797    3.11246279209756    0.01194530941379
C          -1.14425288618109    0.98278621029301    0.00850676997993
C          -0.67651448114100   -0.43165120555167    0.00753776942375
N          -1.74072166399395   -1.28057709021155    0.00537109641485
C          -2.79276745045485   -0.51135539810843    0.00471261271726
C          -2.49434727026119    0.91565833637727    0.00605593731083
C           2.50979180938081    0.89984054271279    0.00716300245419
H           3.78399693276632   -0.96405769046456    0.00448367842718
H          -3.78030822030762   -0.94015603988718    0.00280532538292
H          -3.22280981149484    1.70203739081945    0.00545487265150
H           3.24322212666181    1.68158906985987    0.00692898410134
