# ORCA input file
# SCF done        -31.115150220856          0.000833144128
! B3LYP/G D3BJ Opt RIJCOSX def2-SVP def2/J
* xyz 0 1
   C        2.79918        -0.52903         0.00581
   N        1.74230        -1.29158         0.00610
   C        0.68348        -0.43593         0.00781
   C        1.16015         0.97551         0.00899
   C        0.01087         1.90631         0.01021
   O        0.01468         3.11246         0.01195
   C       -1.14425         0.98279         0.00851
   C       -0.67651        -0.43165         0.00754
   N       -1.74072        -1.28058         0.00537
   C       -2.79277        -0.51136         0.00471
   C       -2.49435         0.91566         0.00606
   C        2.50979         0.89984         0.00716
   H        3.78400        -0.96406         0.00448
   H       -3.78031        -0.94016         0.00281
   H       -3.22281         1.70204         0.00545
   H        3.24322         1.68159         0.00693
*
