# ORCA input file
# SCF done        -31.148317714932          0.000870329664
! B3LYP/G D3BJ Opt RIJCOSX def2-SVP def2/J
* xyz 0 1
   C       -1.32787        -1.35145         0.11728
   S       -2.48853        -0.08656         0.05100
   C       -1.27780         1.15829        -0.07117
   C       -0.01320         0.58839        -0.05468
   C       -0.06999        -0.84088         0.05220
   S        1.50628        -1.57475         0.07950
   C        2.23147         0.02787        -0.04461
   C        3.62301         0.15756        -0.06917
   N        4.76490         0.27269        -0.08947
   C        1.32727         1.04678        -0.10395
   C       -1.72436         2.51842        -0.16610
   C       -0.96468         3.59685        -0.35104
   H       -1.64102        -2.37185         0.19888
   H        1.62962         2.07496        -0.17341
   H       -2.79739         2.63503        -0.08032
   H        0.10402         3.54603        -0.45698
   H       -1.40551         4.57642        -0.40959
*
