14
 SCF done        -22.830895108627          0.000684066829
N           1.32870493768211    1.16278870126732    0.24205760291982
C           0.02071965103127    0.72714732568022    0.09132637365855
C          -1.20912277794217    1.27478837997464   -0.00359155039867
S          -2.41624030989336    0.02185997806572   -0.08429463499529
C          -1.21923505710350   -1.24081199365818   -0.00468960909411
C           0.01497558693007   -0.70316244487231    0.09071615542451
N           1.31941163321186   -1.14934910794472    0.24109702196077
C           2.19243218509935    0.00328587543672    0.05706147985495
H           1.61317153559244    2.01924534893855   -0.20698162112773
H          -1.51105769533612    2.30060336624705   -0.03017712414299
H          -1.52943431446726   -2.26413215811712   -0.03213041982385
H           1.59712368373101   -2.00784720091314   -0.20824811845335
H           2.68198786752404    0.00174134035928   -0.93855021680213
H           2.97892307394025   -0.00017741046404    0.82468466101952
