30
 SCF done        -46.831599525662          0.000978587632
C          -0.45516467714851   -1.47956254681636    0.06537851662385
N          -1.67079255104226   -0.88374040825767    0.20146849110421
C          -2.94387940350600   -1.55850491657038    0.21813522784533
C          -3.38838464648074   -1.94978462665353   -1.18916414610313
C          -1.55557308021558    0.52399103763128    0.23885731135231
O          -2.51336149554619    1.26527957506035    0.35066600244669
C          -0.13776630805116    0.76121877110305    0.12431422755660
C           0.51018021604431   -0.51714072246601    0.01910109468261
C           1.93353556951244   -0.28518290529907   -0.09333339884240
O           2.88133772072407   -1.03153741840420   -0.20058922162216
N           2.05407652049517    1.12067235137793   -0.04337136488633
C           3.33845105951361    1.75631926527153   -0.20252652815390
C           3.54213220109650    2.27139791581880   -1.62545136032504
C           0.83273840952364    1.74320779289372    0.08019099666970
C           0.68173304773640    3.17064900372955    0.16307408705303
C          -0.50674055852787    3.76750478928991    0.25525868156827
H          -0.36645290969904   -2.54947195800817    0.02018049691104
H          -3.66197240614240   -0.85807716383809    0.65321526967626
H          -2.87156161456262   -2.44395685328384    0.85642114354206
H          -3.47705598443581   -1.06220638111808   -1.81083135387920
H          -4.35443384686889   -2.44496937204291   -1.14849420861495
H          -2.66719625446190   -2.62434818630224   -1.64568594192047
H           4.08356890953563    0.98684919782626    0.01855569758028
H           3.44399044484815    2.56613253744769    0.52456621029549
H           3.48804683614399    1.44396200140101   -2.32867196587349
H           4.51857890013584    2.73983938526122   -1.71297488987863
H           2.77758482593095    2.99918279748796   -1.88914903509781
H           1.58805830095284    3.75911329788675    0.15244313040349
H          -1.42216598809410    3.20078509990865    0.27246952138391
H          -0.58893123741018    4.83860863966486    0.32322730850238
