# ORCA input file
# SCF done        -23.821623553586          0.000882766208
! B3LYP/G D3BJ Opt RIJCOSX def2-SVP def2/J
* xyz 0 1
   C       -0.42225        -1.28633         0.04838
   S        1.31226        -0.75704        -0.21607
   C        0.96762         0.77351         0.39207
   C       -0.41511         1.13832         0.26134
   N       -0.76774         2.39670         0.34454
   N       -2.03188         2.76809         0.43050
   C       -1.23949        -0.02620         0.10383
   S       -2.87872        -0.14756         0.00135
   H       -0.46469        -1.79149         1.01765
   H       -0.74488        -1.97808        -0.72752
   H        1.13658        -0.87618        -1.66925
   H        1.75799         1.49101         0.45875
   H       -2.18248         3.76009         0.35462
   H       -2.79114         2.11625         0.25242
*
