# ORCA input file
# SCF done        -19.379817624637          0.000272126420
! B3LYP/G D3BJ Opt RIJCOSX def2-SVP def2/J
* xyz 0 1
   C        0.25844        -1.12165        -0.10100
   S       -1.11369        -0.08709         0.18724
   C       -0.03354         1.24499         0.15204
   C        1.25366         0.83012        -0.07067
   N        1.37844        -0.52218        -0.20942
   C        2.40602         1.70293        -0.15920
   C        3.63613         1.26098        -0.39033
   H        0.13285        -2.18318        -0.17722
   H       -0.39482         2.24348         0.29295
   H        2.19903         2.75608        -0.02433
   H        3.82462         0.20983        -0.52418
   H        4.47733         1.92915        -0.45262
*
