# ORCA input file
# SCF done        -26.487833895823          0.000543794856
! B3LYP/G D3BJ Opt RIJCOSX def2-SVP def2/J
* xyz 0 1
   C        0.06901         1.17635        -0.03887
   S       -0.99791        -0.17078        -0.04119
   C        0.34017        -1.24921        -0.03035
   C        1.53730        -0.60593        -0.02489
   C        1.37857         0.81333        -0.02629
   C        2.50322         1.80196        -0.07438
   C        2.90419         2.09895        -1.52072
   C        2.85147        -1.32237         0.04144
   C        3.27926        -1.54084         1.49411
   H       -0.33913         2.16781        -0.04352
   H        0.16115        -2.30634        -0.02956
   H        3.36475         1.41374         0.47091
   H        2.18757         2.72980         0.40727
   H        3.21715         1.18873        -2.02755
   H        3.72539         2.81169        -1.54860
   H        2.06157         2.51819        -2.06584
   H        3.61678        -0.74709        -0.48142
   H        2.75849        -2.29119        -0.45389
   H        3.37863        -0.58974         2.01270
   H        4.23421        -2.05993         1.53507
   H        2.53667        -2.13746         2.01884
*
