# ORCA input file
# SCF done        -43.147925602362          0.000316340283
! B3LYP/G D3BJ Opt RIJCOSX def2-SVP def2/J
* xyz 0 1
   C       -1.77962         1.27129         0.20619
   S       -3.12854         0.22720         0.24540
   C       -0.59256         0.57984         0.12320
   C        0.72211         1.09284         0.09550
   C        1.80207         0.25793         0.01639
   O        3.01642         0.87725        -0.03553
   C        4.18469         0.22651         0.41483
   C        1.59746        -1.16719        -0.06097
   O        2.72189        -1.93442        -0.20245
   C        2.57859        -3.32692        -0.31947
   C        0.33254        -1.68472        -0.01289
   C       -0.79370        -0.83857         0.08687
   C       -2.13825        -1.19396         0.14810
   C       -2.70678        -2.50781         0.14270
   C       -4.00781        -2.78437         0.22484
   H       -1.92514         2.33176         0.24986
   H        0.88931         2.15706         0.13517
   H        4.91337         1.02291         0.56936
   H        4.56896        -0.47823        -0.32556
   H        4.01667        -0.29733         1.35864
   H        3.58943        -3.71510        -0.43763
   H        1.98201        -3.59788        -1.19668
   H        2.12720        -3.76319         0.57781
   H        0.17267        -2.74885        -0.06552
   H       -1.99146        -3.31643         0.06623
   H       -4.74427        -2.00197         0.30243
   H       -4.37183        -3.79613         0.21586
*
