17
 SCF done        -31.209809168916          0.000817892630
C          -1.19457272482689   -1.35898213946764    0.15172301111200
S          -2.43252287754840   -0.15396652941556    0.08574842622743
C          -1.29347934746207    1.17201202189623   -0.07686694182041
C          -0.02595534725195    0.65227507475426   -0.07413954262032
C           0.02316710086890   -0.76959985487904    0.05412457191091
N           1.35206584864787   -1.12678407607561    0.03962161717159
C           2.14340047914513    0.00021656181666   -0.09065617548108
O           3.34641974140133    0.03784367682518   -0.13554683048400
N           1.27918043957274    1.07916801987669   -0.16054613562901
C          -1.78963197575167    2.51577422189241   -0.17681426905463
C          -1.04780242739430    3.61308538979398   -0.31066274110070
H          -1.45687603378309   -2.39095014964798    0.25535900694498
H           1.72700929185685   -2.05589077575539    0.11304110259083
H           1.60175052656745    2.02607964392900   -0.25420090282403
H          -2.86721771820522    2.59833997483556   -0.13203407618417
H           0.02657863379138    3.58409641312186   -0.36150510880675
H          -1.50237360962807    4.58530252649935   -0.37662501195264
