16
 SCF done        -29.382212377074          0.000486865160
C          -1.17432984666063    1.41032056222887   -0.16476584889348
S          -2.44495187488587    0.23002416161592   -0.11498444720731
C          -1.33663235238286   -1.12237710483364    0.06379160791760
C          -0.06884413178280   -0.62366224506182    0.07689340495738
C           0.01692874475873    0.78542407089428   -0.05056418866091
O           1.32770042246519    1.16485643067305   -0.02367568223956
C           2.06522227296985   -0.03506126913909    0.11086034827178
O           1.18921439040516   -1.14381821492073    0.18539526369869
C          -1.82011531810201   -2.47249745650170    0.16578298990693
C          -1.02472576995824   -3.52932126348112    0.30394919550564
H          -1.40146571819660    2.44934321465413   -0.27196784349018
H           2.67349839688894    0.01128653653016    1.02745281469252
H           2.73005211089399   -0.15401908024778   -0.75962522469408
H          -2.89497438463527   -2.58019621697153    0.12154694363216
H           0.04557404044379   -3.42024851057272    0.34764425142094
H          -1.42246098222146   -4.52588361486636    0.37664641518186
