# ORCA input file
# SCF done        -29.382212377074          0.000486865160
! B3LYP/G D3BJ Opt RIJCOSX def2-SVP def2/J
* xyz 0 1
   C       -1.17433         1.41032        -0.16477
   S       -2.44495         0.23002        -0.11498
   C       -1.33663        -1.12238         0.06379
   C       -0.06884        -0.62366         0.07689
   C        0.01693         0.78542        -0.05056
   O        1.32770         1.16486        -0.02368
   C        2.06522        -0.03506         0.11086
   O        1.18921        -1.14382         0.18540
   C       -1.82012        -2.47250         0.16578
   C       -1.02473        -3.52932         0.30395
   H       -1.40147         2.44934        -0.27197
   H        2.67350         0.01129         1.02745
   H        2.73005        -0.15402        -0.75963
   H       -2.89497        -2.58020         0.12155
   H        0.04557        -3.42025         0.34764
   H       -1.42246        -4.52588         0.37665
*
