27
 SCF done        -37.979214000079          0.000302065578
C           1.64203917331785   -1.36591796621051    0.04183192401913
S           2.85343678510382   -0.15363366943116    0.02897463239116
C           1.65636890614090    1.10313095966745   -0.15415530131188
C           0.38985950026432    0.56737122291318   -0.18649858973204
C           0.38969339145837   -0.84728936436219   -0.07422655614040
C          -0.86950242409606   -1.65403009754984   -0.04448496172188
C          -2.02602361537268   -0.85962028559792   -0.64317599465534
C          -2.11466591489093    0.51444953484806    0.03492015491550
O          -2.18195786051653    0.43333328299134    1.44612396764181
C          -3.41006110458121   -0.01220094080456    1.95462832760243
C          -0.87890687814256    1.35023041371421   -0.31419843584020
C           2.14223511827605    2.45698183721314   -0.22813998770046
C           1.47941129272114    3.54178726611177   -0.62054150511474
H           1.92420480255563   -2.39585359342084    0.13739772857225
H          -1.10216316670676   -1.89349239212947    0.99756657437712
H          -0.73045741356523   -2.59548003450907   -0.58052830175619
H          -2.96128425537362   -1.40881525516614   -0.52011722762250
H          -1.86510654231523   -0.70359040884474   -1.71139847124900
H          -3.01383861914172    1.04096392377152   -0.33372755046020
H          -3.35660835681727    0.11324732896615    3.03479406074367
H          -3.59835663623467   -1.06796518603311    1.72719333489365
H          -4.24297642818116    0.58502476632232    1.56079117907238
H          -0.84519936360954    2.21248246457690    0.35498489937133
H          -0.98401225579806    1.71306922900148   -1.34108894344785
H           3.18154159632476    2.55990446875953    0.06067763329848
H           0.45949075701041    3.52137688693317   -0.95559208812309
H           1.96317951217005    4.50351560826937   -0.62784050202322
