15
 SCF done        -25.293695496912          0.000995051837
C           0.05387763319845    1.13537894099458   -0.02968045324625
S          -1.12295741395119   -0.10600628768465   -0.00560165999619
C           0.11653676194338   -1.32475701115515    0.01628733264114
C          -0.28840410559988   -2.70848588968156    0.04302612191159
O           0.44187977561245   -3.67221849744452    0.05797067872582
C           1.38891517163654   -0.76033753961410    0.00449579830510
C           1.32480786066370    0.65542911267902   -0.02183614888329
C           2.60220840331946   -1.54958721925035    0.01816004268119
C           3.83513158828965   -1.05021847365481    0.01742325863762
H          -0.26223315893546    2.16034949314682   -0.04857144974454
H          -1.39044214595928   -2.83000556540755    0.04048838077166
H           2.18932094530160    1.29342581715663   -0.03497467760408
H           2.44992902581565   -2.61885135925157    0.03042723195427
H           4.03934815075745    0.00729864221660    0.00693880853761
H           4.69466150790749   -1.69785416304939    0.02851673530836
