22
 SCF done        -35.757508241582          0.000835626012
C           1.40882485434567    1.22031985015996   -0.30432039811170
S           2.66986188879901    0.05547523566108   -0.23118750267579
C           1.53145713012708   -1.19711433124522    0.06548616772832
C           0.25401357604019   -0.73741984110865    0.10375047396724
C           0.18285767856177    0.66736002986535   -0.11183029045499
C          -1.11821025436699    1.40707925745204   -0.16021397857283
C          -2.23032362665273    0.58172342273302    0.48668841931699
C          -2.22838937821623   -0.85054888788289   -0.07077317613994
C          -2.32578204967761   -0.83494702820352   -1.59383320904223
O          -1.50021594928349   -1.27814102986352   -2.33421908589306
O          -3.45643716664024   -0.28187524175019   -2.07856113809850
C          -0.95647203751147   -1.57631038733696    0.37229530541394
H           1.64934787803897    2.24793716548111   -0.49205128681169
H           1.87539674199904   -2.20427808921792    0.18996622361709
H          -1.36942727412310    1.60794060081011   -1.20760527862703
H          -1.02327397936447    2.37237176355766    0.34305213646756
H          -3.19372641728434    1.07304409872161    0.32310731286975
H          -2.06754159000132    0.53041247252500    1.56543838970991
H          -3.10401485351008   -1.39339780473215    0.30855157444583
H          -4.04998485895497    0.02393723939735   -1.38108499996179
H          -0.86831501392095   -2.52777010814176   -0.15437173587876
H          -1.02048529840374   -1.78867838688153    1.44407607673179
