16
 SCF done        -29.385827038281          0.000471717068
C           1.22975815623856    0.75665783177564    0.08224350688346
C           0.01445392047419    1.23866217339307   -0.26485277112487
S          -1.12382526667108   -0.02181996219358   -0.56536682675588
C           0.04650216299547   -1.21227560684545   -0.22220659236717
C           1.25747218555368   -0.66576345313189    0.10998188095577
C           2.42302279150926   -1.48877654045866    0.45154003678823
O           2.43347663256437   -2.69432828232122    0.48361288685419
O           3.49984040147300   -0.71821822966290    0.72842181514317
C           4.67239891222381   -1.34088516706593    1.07430169999818
C           5.76120269964759   -0.64409637034966    1.34127895863492
H           2.08319918713188    1.36627332633662    0.31361929960918
H          -0.29498760895476    2.25976621474182   -0.36453674721804
H          -0.19688093171056   -2.25452763922867   -0.27609471629306
H           4.61735505275983   -2.42203235153409    1.10560271076221
H           5.76630026215865    0.43032875332941    1.29429773083730
H           6.67380144260612   -1.13882469678449    1.61289712729241
