# ORCA input file
# SCF done        -29.385827038281          0.000471717068
! B3LYP/G D3BJ Opt RIJCOSX def2-SVP def2/J
* xyz 0 1
   C        1.22976         0.75666         0.08224
   C        0.01445         1.23866        -0.26485
   S       -1.12383        -0.02182        -0.56537
   C        0.04650        -1.21228        -0.22221
   C        1.25747        -0.66576         0.10998
   C        2.42302        -1.48878         0.45154
   O        2.43348        -2.69433         0.48361
   O        3.49984        -0.71822         0.72842
   C        4.67240        -1.34089         1.07430
   C        5.76120        -0.64410         1.34128
   H        2.08320         1.36627         0.31362
   H       -0.29499         2.25977        -0.36454
   H       -0.19688        -2.25453        -0.27609
   H        4.61736        -2.42203         1.10560
   H        5.76630         0.43033         1.29430
   H        6.67380        -1.13882         1.61290
*
