22
 SCF done        -52.126955331791          0.000908344872
C          -0.00850712958925    1.48501161236712    0.07948613431734
C           1.13918144470732    0.71154298669770    0.03831364668277
C           2.56794600518742    1.12721660994599    0.02176961611693
O           3.04274151652267    2.21581652498762    0.05201976335309
O           3.31510198144949   -0.02276652826944   -0.04039411217275
C           2.51825202460397   -1.14386912259512   -0.06004948315040
O           2.96482633003119   -2.24578242574106   -0.11740111117436
C           1.10680720137863   -0.68172360004551   -0.00778504126442
C          -0.07970391341014   -1.43456928181408    0.00444568712342
C          -1.23962813200468   -0.63974534933859    0.01618929499044
C          -1.18688393117038    0.75714569341822    0.05124200171998
C          -2.58358242294390    1.26610404710253    0.01746097843928
O          -2.98430012636345    2.38426696668276    0.05251384697777
O          -3.40162108639216    0.17037270563204   -0.07258926768288
C          -2.68162621846325   -1.00232278746895   -0.08742146669700
O          -3.21290900103140   -2.06173372182525   -0.18817505174329
C          -0.01920350944131   -2.88434327863715   -0.00810146065124
C          -0.89485377982216   -3.70184394358619    0.56752361927782
H           0.00945245497227    2.56161850763393    0.11494748414057
H           0.87162863934978   -3.28683254673691   -0.47180465121498
H          -1.76464319426055   -3.35226549556126    1.09479375023972
H          -0.74947515331010   -4.76775757284850    0.53476582237223
