# ORCA input file
# SCF done        -43.250557619265          0.000588979016
! B3LYP/G D3BJ Opt RIJCOSX def2-SVP def2/J
* xyz 0 1
   C       -1.61388        -1.36870        -0.13407
   S       -2.76149        -0.09253        -0.05756
   C       -1.54113         1.13381         0.12659
   C       -0.28277         0.54973         0.11595
   C       -0.35061        -0.87666        -0.03037
   S        1.22126        -1.62101        -0.04654
   C        1.95308        -0.03786         0.11798
   C        3.41451         0.02539         0.15671
   O        4.13427        -0.94295         0.12328
   O        3.85164         1.29339         0.21764
   C        5.26654         1.47735         0.27019
   C        5.78859         1.36881         1.69554
   C        1.06249         0.98979         0.19095
   C       -1.97140         2.49560         0.26211
   C       -1.20317         3.54634         0.54637
   H       -1.93894        -2.38192        -0.24857
   H        5.43717         2.47563        -0.13835
   H        5.74501         0.72557        -0.36596
   H        5.27871         2.08242         2.33866
   H        6.85482         1.57525         1.70924
   H        5.61950         0.36476         2.07685
   H        1.37999         2.01089         0.28421
   H       -3.03652         2.63773         0.12654
   H       -0.14489         3.46257         0.71208
   H       -1.62456         4.53232         0.62839
*
