# ORCA input file
# SCF done        -57.031644139952          0.000462899524
! B3LYP/G D3BJ Opt RIJCOSX def2-SVP def2/J
* xyz 0 1
   C        2.85665         0.32494        -2.19298
   C        1.62283        -0.00016        -1.56628
   C        0.35980         0.50688        -1.89476
   O        0.17549         1.42556        -2.90185
   C        0.55155         2.75791        -2.58552
   C       -0.35066         3.39109        -1.53210
   C       -0.71852         0.00074        -1.18735
   C       -0.57069        -0.95924        -0.16617
   C       -1.82711        -1.31909         0.40493
   C       -2.86243        -0.66631        -0.15956
   S       -2.38918         0.42983        -1.41668
   C        0.70022        -1.44471         0.19614
   O        0.69057        -2.33966         1.21405
   C        1.89049        -2.91104         1.69749
   C        1.51953        -3.82280         2.85676
   C        1.78251        -0.95438        -0.52413
   S        3.47928        -1.37677        -0.35620
   C        3.93482        -0.31705        -1.67158
   C        5.30429        -0.19383        -2.09287
   C        6.32965        -0.83061        -1.53559
   H        2.92352         0.99946        -3.02822
   H        0.46804         3.29521        -3.53342
   H        1.59561         2.79118        -2.24535
   H       -1.38872         3.33856        -1.85049
   H       -0.07205         4.43170        -1.38953
   H       -0.25075         2.86781        -0.58283
   H       -1.91732        -2.03769         1.19818
   H       -3.90473        -0.74987         0.07825
   H        2.57529        -2.12538         2.03976
   H        2.38304        -3.48787         0.90482
   H        1.03389        -3.24771         3.64055
   H        2.41442        -4.28940         3.25763
   H        0.83430        -4.59461         2.51725
   H        5.46072         0.47879        -2.92681
   H        6.18797        -1.50208        -0.70458
   H        7.33666        -0.70167        -1.89061
*
