36
 SCF done        -57.031644139952          0.000462899524
C           2.85664685941403    0.32493768385612   -2.19297851936950
C           1.62282667988232   -0.00015869270417   -1.56627559338620
C           0.35979652355168    0.50688372846055   -1.89475650300133
O           0.17548620212746    1.42555794185558   -2.90184726250365
C           0.55154552791446    2.75791308111739   -2.58552389527178
C          -0.35065547246711    3.39108921214084   -1.53209801363806
C          -0.71851593557836    0.00074222059065   -1.18734758948190
C          -0.57068555727031   -0.95923853195307   -0.16616696255727
C          -1.82710768079279   -1.31909353041225    0.40493006351260
C          -2.86243203504014   -0.66631009715295   -0.15955665835734
S          -2.38917642402975    0.42982540418935   -1.41667750030157
C           0.70021810853369   -1.44470608955978    0.19614190353246
O           0.69056779388588   -2.33965935467634    1.21404936924363
C           1.89048729303477   -2.91103533997545    1.69748984337027
C           1.51952530882475   -3.82280177822697    2.85676192251325
C           1.78251084382805   -0.95438499000445   -0.52413026445141
S           3.47927541018112   -1.37676516417939   -0.35619673164521
C           3.93482155386571   -0.31704621344833   -1.67158454900455
C           5.30429237898105   -0.19383357908600   -2.09287218999194
C           6.32964562999004   -0.83061456506061   -1.53559241267269
H           2.92352372427975    0.99946372189570   -3.02822483921241
H           0.46804073956283    3.29520619971909   -3.53341823302256
H           1.59560974796082    2.79117775580997   -2.24535444104159
H          -1.38872119901106    3.33856303391522   -1.85048568911037
H          -0.07205297680700    4.43170279349656   -1.38952574000331
H          -0.25074680858775    2.86781453631555   -0.58283214871094
H          -1.91732451773826   -2.03768846590363    1.19817661688783
H          -3.90473155015750   -0.74987115138311    0.07824760253918
H           2.57529358426406   -2.12537583218972    2.03975973498709
H           2.38304209233728   -3.48787081789148    0.90481520609641
H           1.03389344937806   -3.24771406940772    3.64055460517640
H           2.41442228165960   -4.28940042165352    3.25763163981437
H           0.83429798469364   -4.59460819297350    2.51724740020004
H           5.46071592902213    0.47879447010424   -2.92680832471053
H           6.18796687320891   -1.50208292910306   -0.70458104195403
H           7.33665763709925   -0.70167197652286   -1.89061080447369
