19
 SCF done        -30.638867869678          0.000728297662
C          -1.52583725840599   -1.43844631108138    0.29281661532647
S          -2.73515974817875   -0.23424221971699    0.38719727810508
C          -1.60283020265399    1.02209347854380    0.16329415044694
C          -0.32644684898964    0.53558197289033    0.01841533774991
C          -0.27670033769414   -0.89930357941116    0.09383719372466
C           0.96849582240329   -1.56503645679344   -0.03538356909584
C           2.08985513738823   -0.82310075237469   -0.22547715931951
C           2.05580074651722    0.59147339815325   -0.30050922511484
C           0.87928970187154    1.27616684973033   -0.18553526795822
O           0.72366537458756    2.62752572946392   -0.24530947513274
C           1.87072416303479    3.41911118939729   -0.43675302901561
H          -1.79275593086171   -2.47150969330413    0.38748961944330
H          -1.92176255796442    2.04389219263441    0.14901702811131
H           1.00236354710954   -2.64196045418939    0.02036420718887
H           3.04978900625815   -1.30833878707881   -0.32421506618468
H           2.98886222678268    1.11052830929850   -0.45162723225759
H           1.51905557117356    4.44933198052324   -0.46165410203506
H           2.36852728006175    3.18308850305320   -1.38348363932623
H           2.58188430756038    3.29837465026169    0.38725633534371
