23
 SCF done        -32.699304495981          0.000890551153
C           1.42726720248679    1.20357644751493    0.12946407214104
S           2.72141706955643    0.08771588287143   -0.03709972652514
C           1.61295726775562   -1.22283289175825   -0.15967970924577
C           0.31965196186447   -0.81747581459348   -0.06792540806035
C           0.21451294324385    0.59258224200710    0.09826640734524
C          -1.10165979355748    1.31033145104465    0.20145504192471
O          -0.96211648079456    2.32447621408818    1.18097302053055
C          -1.97504738751643    3.29499526979850    1.17481922405744
C          -2.22114863899995    0.30952425393438    0.52432728991171
C          -2.13691311453544   -0.89979133626768   -0.40161403761693
C          -0.87957237142623   -1.71199530078735   -0.10105351523334
H           1.63286396441610    2.24692566570582    0.25438982308902
H           1.98592444648860   -2.21963127636217   -0.28677707925764
H          -1.32351121222192    1.78595571686750   -0.77463585149292
H          -1.65713202316596    4.07013063068455    1.86873609143855
H          -2.93769351368502    2.89160301914005    1.50727765414344
H          -2.10112363604162    3.73166573491599    0.17605504871171
H          -3.19224232255388    0.79596391846423    0.41479349408120
H          -2.11014801649430   -0.00722447548397    1.56367425205571
H          -2.11438593908457   -0.55827409358513   -1.43952062821948
H          -3.02006785436682   -1.52848370474041   -0.27295459432177
H          -0.74198449009959   -2.50022008750829   -0.84450393582945
H          -0.98684806126806   -2.19657746595066    0.87486306637247
