# ORCA input file
# SCF done        -32.699304495981          0.000890551153
! B3LYP/G D3BJ Opt RIJCOSX def2-SVP def2/J
* xyz 0 1
   C        1.42727         1.20358         0.12946
   S        2.72142         0.08772        -0.03710
   C        1.61296        -1.22283        -0.15968
   C        0.31965        -0.81748        -0.06793
   C        0.21451         0.59258         0.09827
   C       -1.10166         1.31033         0.20146
   O       -0.96212         2.32448         1.18097
   C       -1.97505         3.29500         1.17482
   C       -2.22115         0.30952         0.52433
   C       -2.13691        -0.89979        -0.40161
   C       -0.87957        -1.71200        -0.10105
   H        1.63286         2.24693         0.25439
   H        1.98592        -2.21963        -0.28678
   H       -1.32351         1.78596        -0.77464
   H       -1.65713         4.07013         1.86874
   H       -2.93769         2.89160         1.50728
   H       -2.10112         3.73167         0.17606
   H       -3.19224         0.79596         0.41479
   H       -2.11015        -0.00722         1.56367
   H       -2.11439        -0.55827        -1.43952
   H       -3.02007        -1.52848        -0.27295
   H       -0.74198        -2.50022        -0.84450
   H       -0.98685        -2.19658         0.87486
*
