# ORCA input file
# SCF done        -32.118771376431          0.000911333468
! B3LYP/G D3BJ Opt RIJCOSX def2-SVP def2/J
* xyz 0 1
   C        0.95146         1.40478        -0.04865
   C       -0.27928         0.71117         0.06084
   C       -1.54859         1.22935         0.14478
   S       -2.73448         0.00538         0.26680
   C       -1.55708        -1.23047         0.20837
   C       -0.28080        -0.72702         0.09570
   C        0.95235        -1.44703         0.01650
   N        0.91647        -2.81827         0.14548
   C        2.13618        -0.73248        -0.08287
   C        2.10272         0.69036        -0.11152
   C        3.42025        -1.41577        -0.19003
   C        4.58705        -0.94253         0.23179
   H        0.94983         2.48313        -0.08485
   H       -1.84396         2.25916         0.14154
   H       -1.88134        -2.25025         0.27195
   H        0.05571        -3.27001        -0.11202
   H        1.75014        -3.31916        -0.11250
   H        3.04461         1.20652        -0.21712
   H        3.40596        -2.39073        -0.66714
   H        4.67382         0.00136         0.74125
   H        5.50097        -1.49542         0.09763
*
