# ORCA input file
# SCF done        -27.925429515058          0.000323034343
! B3LYP/G D3BJ Opt RIJCOSX def2-SVP def2/J
* xyz 0 1
   C       -1.48032        -1.25588         0.15580
   S       -2.64796        -0.01741         0.24253
   C       -1.46344         1.20966         0.15590
   C       -0.19341         0.69199         0.06221
   C       -0.20202        -0.75001         0.06184
   C        1.01709        -1.45567        -0.02975
   C        2.18823        -0.74714        -0.11666
   C        3.42168        -1.42950        -0.21194
   N        4.42554        -1.97815        -0.29185
   C        2.19839         0.68081        -0.11503
   C        1.04133         1.38436        -0.02814
   H       -1.78332        -2.28340         0.17746
   H       -1.75753         2.23972         0.17782
   H        1.01772        -2.53559        -0.03110
   H        3.15122         1.18402        -0.18481
   H        1.04083         2.46379        -0.02639
*
