16
 SCF done        -27.925429515058          0.000323034343
C          -1.48032154507638   -1.25587948761694    0.15579624273376
S          -2.64795797440899   -0.01740633147885    0.24252605026490
C          -1.46343696362044    1.20965941137209    0.15590039531330
C          -0.19341020970550    0.69198901971629    0.06221360844167
C          -0.20201838257017   -0.75000627535558    0.06184483587943
C           1.01709327013488   -1.45566999354116   -0.02975423141776
C           2.18822768705894   -0.74713604917950   -0.11666300693941
C           3.42167864355359   -1.42949835297659   -0.21193992656994
N           4.42553827723749   -1.97815219345196   -0.29185378016354
C           2.19839029316428    0.68081091272587   -0.11502916261304
C           1.04133049875239    1.38435542074658   -0.02813513652578
H          -1.78331571911199   -2.28339513287072    0.17745716762905
H          -1.75753131571523    2.23972377952001    0.17781896537374
H           1.01772464314591   -2.53559185524248   -0.03109863982919
H           3.15122246493161    1.18401551793942   -0.18481455117038
H           1.04082633222962    2.46379160969352   -0.02638883040682
