# ORCA input file
# SCF done        -21.794080813286          0.000628811962
! B3LYP/G D3BJ Opt RIJCOSX def2-SVP def2/J
* xyz 0 1
   C       -1.24848        -1.26930        -0.00234
   S       -2.43399        -0.01421         0.00112
   C       -1.26523         1.24384         0.00205
   C       -0.00045         0.72277         0.00089
   C       -0.00285        -0.71723        -0.00164
   N        1.30598        -1.09203        -0.00259
   N        2.11989        -0.01575        -0.00043
   C        1.38508         1.06005         0.00066
   H       -1.55410        -2.29443        -0.00424
   H       -1.58278         2.26614         0.00353
   H        1.70018        -2.01606        -0.00481
   H        1.83720         2.03092         0.00153
*
