19
 SCF done        -28.967769185209          0.000741908044
C          -0.53067899803295   -1.18235943647600   -0.65544524562873
S          -1.26285753245255    0.47377747917730   -0.95697118734981
C          -0.06463006427719    1.32352124695613    0.12740251245290
C           1.15523520934965    0.40686796751890    0.20881455204118
C           0.56963816745270   -1.00358516666932    0.38026468515413
C           1.96623608448710    0.81598205026971    1.45553140168300
O           1.69676263251138    0.42462665128857    2.56847046284905
N           2.95850091134817    1.67512470115937    1.17284605250198
N           1.97203000367156    0.58868285899863   -0.98307101972012
H          -0.14467404371372   -1.54587126695214   -1.60902252106404
H          -1.31851160184710   -1.85168720398154   -0.31669990936174
H          -0.51524787135696    1.46029296616176    1.10980754090148
H           0.17564324454488    2.28977641446605   -0.31000041681217
H           0.16832658120774   -1.07840643493031    1.39175881136058
H           1.34269600161755   -1.76587188641872    0.26342368172905
H           3.12022060992524    1.92304521385015    0.20995948634535
H           3.55133103034264    2.02119620505200    1.90798262162544
H           1.38349895357184    0.56429925553540   -1.81018826824555
H           2.65373068165047   -0.15904161500580   -1.06255324046171
