# ORCA input file
# SCF done        -28.967769185209          0.000741908044
! B3LYP/G D3BJ Opt RIJCOSX def2-SVP def2/J
* xyz 0 1
   C       -0.53068        -1.18236        -0.65545
   S       -1.26286         0.47378        -0.95697
   C       -0.06463         1.32352         0.12740
   C        1.15524         0.40687         0.20881
   C        0.56964        -1.00359         0.38026
   C        1.96624         0.81598         1.45553
   O        1.69676         0.42463         2.56847
   N        2.95850         1.67512         1.17285
   N        1.97203         0.58868        -0.98307
   H       -0.14467        -1.54587        -1.60902
   H       -1.31851        -1.85169        -0.31670
   H       -0.51525         1.46029         1.10981
   H        0.17564         2.28978        -0.31000
   H        0.16833        -1.07841         1.39176
   H        1.34270        -1.76587         0.26342
   H        3.12022         1.92305         0.20996
   H        3.55133         2.02120         1.90798
   H        1.38350         0.56430        -1.81019
   H        2.65373        -0.15904        -1.06255
*
