# ORCA input file
# SCF done        -39.820685515487          0.000519586058
! B3LYP/G D3BJ Opt RIJCOSX def2-SVP def2/J
* xyz 0 1
   C        1.46213         1.13058        -0.07334
   S        2.61884        -0.13408         0.04187
   C        1.36577        -1.30585         0.14302
   C        0.12539        -0.75099         0.09221
   C        0.18139         0.66931        -0.03600
   C       -1.05221         1.51570        -0.16907
   C       -2.30882         0.75985         0.27566
   C       -2.46959         0.63258         1.78643
   O       -3.53620         0.45306         2.30119
   O       -1.35389         0.70602         2.52465
   C       -2.33815        -0.66640        -0.33750
   O       -2.34700        -0.62381        -1.74011
   C       -1.16789        -1.50010         0.20009
   H        1.79260         2.14555        -0.17033
   H        1.61804        -2.34273         0.23902
   H       -1.17685         1.80530        -1.21809
   H       -0.94636         2.44647         0.39625
   H       -3.19760         1.28395        -0.08825
   H       -0.55361         0.79599         1.98283
   H       -3.28512        -1.14004        -0.05958
   H       -1.47237        -0.35715        -2.04742
   H       -1.11053        -2.43663        -0.35893
   H       -1.36043        -1.75538         1.24633
*
