23
 SCF done        -39.820685515487          0.000519586058
C           1.46212706534588    1.13058386339869   -0.07333889855549
S           2.61883969147980   -0.13407855560953    0.04186556529630
C           1.36576507596101   -1.30585183975810    0.14301971091047
C           0.12539404894401   -0.75098612118175    0.09220869680964
C           0.18138847284102    0.66931189871062   -0.03600085669373
C          -1.05220503041660    1.51569535836948   -0.16907297336130
C          -2.30882241203444    0.75985476455875    0.27565695889948
C          -2.46958807658263    0.63257840881023    1.78642721423599
O          -3.53619881821189    0.45305929918631    2.30119174835923
O          -1.35388670892521    0.70601500977206    2.52465144640932
C          -2.33814627320919   -0.66639829536722   -0.33750251812453
O          -2.34699946630664   -0.62381438241942   -1.74011330948856
C          -1.16788762064739   -1.50010448647146    0.20008515977305
H           1.79259954416890    2.14554863439431   -0.17032718324549
H           1.61804324998302   -2.34272881196605    0.23902187814534
H          -1.17685467392567    1.80529706554592   -1.21809313258613
H          -0.94635601889915    2.44647229157582    0.39624800727246
H          -3.19760301192972    1.28394542019767   -0.08825009399237
H          -0.55360681248657    0.79599241019660    1.98283497051337
H          -3.28512003163532   -1.14003903867034   -0.05958008219062
H          -1.47236888049040   -0.35715391331838   -2.04742231974673
H          -1.11053050985663   -2.43662660786336   -0.35892859946289
H          -1.36043280316636   -1.75538237209094    1.24632861082327
