# ORCA input file
# SCF done        -30.637369366386          0.000854677811
! B3LYP/G D3BJ Opt RIJCOSX def2-SVP def2/J
* xyz 0 1
   N        0.85981         1.39818        -0.28554
   C        1.31995         0.55057         0.79280
   N        1.34012        -0.79939         0.22891
   C        0.21716        -0.89487        -0.68036
   C       -0.10812         0.59123        -1.02012
   N       -1.45801         0.75251        -0.53928
   C       -1.79118        -0.33649         0.36178
   N       -0.98534        -1.45849        -0.07353
   C       -2.00785         2.00536        -0.40439
   C       -3.04753         2.33053         0.35501
   H        1.63336         1.64440        -0.89165
   H        0.62400         0.65562         1.64072
   H        2.32152         0.83397         1.12332
   H        1.30443        -1.52412         0.93463
   H        0.51577        -1.49035        -1.54882
   H       -0.06606         0.82875        -2.08806
   H       -2.85851        -0.56609         0.30654
   H       -1.54021        -0.08843         1.40719
   H       -1.48967        -2.01572        -0.75245
   H       -1.52676         2.74158        -1.03300
   H       -3.54369         1.62709         0.99896
   H       -3.43955         3.33006         0.33940
*
