# ORCA input file
# SCF done         -9.428527313395          0.000331438111
! B3LYP/G D3BJ Opt RIJCOSX def2-SVP def2/J
* xyz 0 1
   C        1.25523        -0.05748         0.03210
   C        2.45910        -0.05748         0.03210
   C        3.81916        -0.05748         0.03210
   C        5.02303        -0.05748         0.03210
   H        0.20695        -0.05748         0.03210
   H        6.07131        -0.05748         0.03210
*
