6
 SCF done         -9.428527313395          0.000331438111
C           1.25523177749353   -0.05747999999998    0.03210000000000
C           2.45910079107714   -0.05748000000002    0.03210000000001
C           3.81915908981757   -0.05747999999998    0.03210000000000
C           5.02302826449521   -0.05748000000002    0.03210000000000
H           0.20694778024419   -0.05748000000001    0.03210000000000
H           6.07131229687237   -0.05747999999999    0.03210000000000
