# ORCA input file
# SCF done        -44.541938857094          0.000798926752
! B3LYP/G D3BJ Opt RIJCOSX def2-SVP def2/J
* xyz 0 1
   C       -1.49734         1.31381         0.25634
   S       -2.63639         0.05359         0.36854
   C       -1.43414        -1.17566         0.19145
   C       -0.17124        -0.60184         0.04733
   C       -0.21782         0.83505         0.08786
   C        0.99555         1.56502        -0.04241
   C        0.93390         3.06038         0.00195
   F        0.17134         3.57373        -0.98579
   F        0.39746         3.52091         1.15090
   F        2.13436         3.64527        -0.11044
   C        2.17781         0.90206        -0.20492
   C        2.21183        -0.50832        -0.24461
   C        1.07278        -1.24770        -0.12226
   C       -1.76630        -2.57000         0.20370
   C       -2.99311        -3.06209         0.37114
   H       -1.82475         2.33175         0.31992
   H        3.09882         1.45568        -0.30353
   H        3.16521        -0.99621        -0.37409
   H        1.11458        -2.32546        -0.15357
   H       -0.93048        -3.24296         0.06603
   H       -3.84424        -2.41768         0.51432
   H       -3.17966        -4.12083         0.37308
*
