22
 SCF done        -44.541938857094          0.000798926752
C          -1.49733652436935    1.31380511714024    0.25633993421493
S          -2.63639333460384    0.05358972193547    0.36854039063847
C          -1.43414061627829   -1.17566309183956    0.19145313316349
C          -0.17124291060766   -0.60183616421729    0.04732816584821
C          -0.21782292254619    0.83505290095942    0.08786018593316
C           0.99555293991318    1.56501868550284   -0.04240813479539
C           0.93389575721804    3.06038152213207    0.00195140026918
F           0.17133688661757    3.57373090384977   -0.98579027136048
F           0.39745920490651    3.52091132534644    1.15090090144061
F           2.13436185873362    3.64526517018905   -0.11044063222026
C           2.17781126225850    0.90206150385832   -0.20492051437837
C           2.21183184660731   -0.50831906268739   -0.24461125503432
C           1.07278148617761   -1.24770379800165   -0.12226026116891
C          -1.76629726628200   -2.57000172057392    0.20369981055065
C          -2.99310505362986   -3.06208969293108    0.37113632396808
H          -1.82475441170483    2.33174557365432    0.31992210123255
H           3.09881907414739    1.45568306949938   -0.30353089902388
H           3.16520929676917   -0.99621251616444   -0.37408875175868
H           1.11457655982085   -2.32545531320284   -0.15357317157755
H          -0.93047701451860   -3.24295855762968    0.06603099426771
H          -3.84423580285851   -2.41767638465501    0.51432013724251
H          -3.17966031577074   -4.12082919216474    0.37308041254828
