20
 SCF done        -31.934589526684          0.000562080903
C          -1.57037004243112    1.27243579210242   -0.00778790313815
S          -2.70713125019405    0.00559200913751   -0.06177877546426
C          -1.47989513165361   -1.21324565271121   -0.01131773459236
C          -0.21432453580616   -0.63229117440087    0.01051581204742
C          -0.27423119120114    0.80921561526098    0.02053271749139
C           0.94332838680087    1.54456559202246    0.05314114773301
S           0.98434454654980    3.31369465770523    0.09267752036543
C           2.13588164822160    0.87740409114181    0.06478456145253
C           2.18281897393448   -0.52876269505927    0.00838759791557
C           1.04382265001661   -1.27589391816854   -0.02663532823065
C          -1.90676854711835   -2.58692834774576    0.02087028123342
C          -1.24106749189767   -3.61705561842181    0.53797274089273
H          -1.92917181027953    2.28295271301334    0.01611546570693
H          -0.29073408553224    3.51641587483758   -0.22362094102147
H           3.05668745284493    1.43983627447508    0.09438506352998
H           3.14888861425780   -1.00974618054092   -0.01788783866071
H           1.09147367209850   -2.34882637381299   -0.10730810653507
H          -2.89954480186030   -2.75214509499770   -0.38170796160283
H          -0.28344761463676   -3.50970204495088    1.01492794298502
H          -1.65984944211374   -4.60837551888644    0.51971373789210
