# ORCA input file
# SCF done        -31.934589526684          0.000562080903
! B3LYP/G D3BJ Opt RIJCOSX def2-SVP def2/J
* xyz 0 1
   C       -1.57037         1.27244        -0.00779
   S       -2.70713         0.00559        -0.06178
   C       -1.47990        -1.21325        -0.01132
   C       -0.21432        -0.63229         0.01052
   C       -0.27423         0.80922         0.02053
   C        0.94333         1.54457         0.05314
   S        0.98434         3.31369         0.09268
   C        2.13588         0.87740         0.06478
   C        2.18282        -0.52876         0.00839
   C        1.04382        -1.27589        -0.02664
   C       -1.90677        -2.58693         0.02087
   C       -1.24107        -3.61706         0.53797
   H       -1.92917         2.28295         0.01612
   H       -0.29073         3.51642        -0.22362
   H        3.05669         1.43984         0.09439
   H        3.14889        -1.00975        -0.01789
   H        1.09147        -2.34883        -0.10731
   H       -2.89954        -2.75215        -0.38171
   H       -0.28345        -3.50970         1.01493
   H       -1.65985        -4.60838         0.51971
*
