# ORCA input file
# SCF done        -27.540134416349          0.000831236498
! B3LYP/G D3BJ Opt RIJCOSX def2-SVP def2/J
* xyz 0 1
   C       -1.14665         0.04573        -0.13631
   C       -0.44098         1.18999        -0.02302
   F       -0.92863         2.42782        -0.05711
   S        1.26744         0.95991         0.18760
   C        0.98948        -0.74792         0.11895
   F        2.02700        -1.57682         0.23236
   C       -0.31596        -1.11299        -0.05518
   C       -0.74650        -2.49520        -0.13881
   C       -1.99088        -2.89746        -0.36610
   H       -2.21104         0.01959        -0.26708
   H        0.04356        -3.22161        -0.00283
   H       -2.80429        -2.20827        -0.51217
   H       -2.23600        -3.94333        -0.41787
*
