13
 SCF done        -27.540134416349          0.000831236498
C          -1.14664771818612    0.04572835890748   -0.13631439809082
C          -0.44098392192883    1.18998929001754   -0.02302383817340
F          -0.92862752555689    2.42781865549841   -0.05710948350803
S           1.26743754348892    0.95990915999854    0.18760396964979
C           0.98947540456619   -0.74792496402307    0.11895305716052
F           2.02700302730092   -1.57681698408946    0.23236002817542
C          -0.31596170070915   -1.11298885461318   -0.05517751745802
C          -0.74649786489074   -2.49520002670532   -0.13880698802770
C          -1.99088409164795   -2.89745751048060   -0.36610133766453
H          -2.21103686091367    0.01958616348378   -0.26708132379478
H           0.04356001487677   -3.22160534111234   -0.00283366421977
H          -2.80429011980327   -2.20826982350468   -0.51217071424827
H          -2.23599618659616   -3.94332812337712   -0.41786778980040
