15
 SCF done        -23.297977242307          0.000743392023
C           2.73260253116618    0.93431298093510    1.05598672699563
C           2.79338113835901    0.11617471946381   -0.03356936520809
C           3.15651211258762   -1.05751066638190    0.83336059530228
C           3.47403962735786   -2.31493151054996    1.13177699498203
S           3.70571707993416   -2.45721007607520    2.88135640815835
C           3.35084593341626   -0.74977954879744    3.14825497218062
C           3.08588740032725   -0.16722233089143    1.97583746822925
C           2.60289129777605    0.25346719136161   -1.43888943649100
C           2.73450202056643   -0.76189721292500   -2.29406690772021
H           2.51658423589168    1.97260126467676    1.21523978304800
H           3.60449679423966   -3.19527061061904    0.53461068184243
H           3.38078590057359   -0.37545060367537    4.15192218964393
H           2.33909118379860    1.24438191299058   -1.78694034391469
H           2.99474776714151   -1.74790998576042   -1.94708324082081
H           2.58465497686416   -0.63992552375210   -3.35230652622773
