# ORCA input file
# SCF done        -23.297977242307          0.000743392023
! B3LYP/G D3BJ Opt RIJCOSX def2-SVP def2/J
* xyz 0 1
   C        2.73260         0.93431         1.05599
   C        2.79338         0.11617        -0.03357
   C        3.15651        -1.05751         0.83336
   C        3.47404        -2.31493         1.13178
   S        3.70572        -2.45721         2.88136
   C        3.35085        -0.74978         3.14825
   C        3.08589        -0.16722         1.97584
   C        2.60289         0.25347        -1.43889
   C        2.73450        -0.76190        -2.29407
   H        2.51658         1.97260         1.21524
   H        3.60450        -3.19527         0.53461
   H        3.38079        -0.37545         4.15192
   H        2.33909         1.24438        -1.78694
   H        2.99475        -1.74791        -1.94708
   H        2.58465        -0.63993        -3.35231
*
