# ORCA input file
# SCF done        -38.686481062352          0.000546937547
! B3LYP/G D3BJ Opt RIJCOSX def2-SVP def2/J
* xyz 0 1
   C       -1.13002         1.38803         0.12393
   C       -2.30150         0.68360         0.08550
   C       -2.29655        -0.71817        -0.01671
   C       -1.12009        -1.41281        -0.07660
   C        0.10250        -0.71549        -0.03580
   C        0.09742         0.70094         0.06046
   N        1.26081         1.38330         0.08321
   C        2.38443         0.71522         0.02673
   C        3.63756         1.54046        -0.01148
   C        4.04040         1.81909        -1.46176
   C        2.38978        -0.71044        -0.04506
   C        3.65053        -1.52478        -0.03118
   C        4.08005        -1.80518         1.41109
   N        1.27098        -1.38802        -0.08032
   H       -1.11193         2.46422         0.19866
   H       -3.24742         1.20337         0.13122
   H       -3.23879        -1.24584        -0.04625
   H       -1.09437        -2.48883        -0.15178
   H        4.45096         1.03770         0.51138
   H        3.43010         2.48855         0.48638
   H        4.23187         0.89249        -1.99941
   H        4.93991         2.42950        -1.49110
   H        3.24114         2.35123        -1.97174
   H        4.45064        -1.01277        -0.56536
   H        3.44334        -2.47279        -0.52932
   H        4.26435        -0.87854         1.95113
   H        4.98989        -2.40070         1.42300
   H        3.29759        -2.35339         1.93006
*
