28
 SCF done        -38.686481062352          0.000546937547
C          -1.13001893702328    1.38802733563932    0.12392885043975
C          -2.30149790575321    0.68360273749844    0.08549897926807
C          -2.29654894518539   -0.71816847579718   -0.01671201399906
C          -1.12009443065574   -1.41281280503839   -0.07659954962899
C           0.10249817710660   -0.71549182339937   -0.03579533325094
C           0.09741819780672    0.70093839131098    0.06046308973636
N           1.26081208352220    1.38330185431586    0.08321117566246
C           2.38442833394572    0.71521876852992    0.02672837446570
C           3.63756009701277    1.54046148164280   -0.01148039620360
C           4.04039965900855    1.81909456488826   -1.46175846106287
C           2.38978383276954   -0.71044361856600   -0.04505522490044
C           3.65052999491538   -1.52478451529952   -0.03118491155554
C           4.08004734435950   -1.80518326515879    1.41108728415180
N           1.27098193256969   -1.38802407407240   -0.08032231263191
H          -1.11192726362059    2.46421940920160    0.19865852123384
H          -3.24742461168543    1.20337384449931    0.13122417348195
H          -3.23879420768850   -1.24583592925027   -0.04624801721695
H          -1.09436808700729   -2.48883120194151   -0.15177931087127
H           4.45095875312265    1.03769518524020    0.51137730746829
H           3.43009773134827    2.48854620543086    0.48637664071338
H           4.23186991121092    0.89249162409945   -1.99941279508469
H           4.93991241675151    2.42949723852193   -1.49109866173492
H           3.24113912405755    2.35123026894752   -1.97174075890903
H           4.45063845966579   -1.01277095269176   -0.56536202164884
H           3.44333804556386   -2.47278814329779   -0.52932366539606
H           4.26435225546790   -0.87854072493944    1.95113331663716
H           4.98988518376316   -2.40069605501841    1.42299606411291
H           3.29759285465115   -2.35338732529563    1.93005965672346
