# ORCA input file
# SCF done        -28.725168839751          0.000840114611
! B3LYP/G D3BJ Opt RIJCOSX def2-SVP def2/J
* xyz 0 1
   C        1.58532         1.24110         0.00514
   S        2.78567         0.01440        -0.01757
   C        1.57374        -1.20765        -0.04238
   C        0.31628        -0.69467        -0.03410
   C        0.32389         0.73075        -0.00769
   C       -0.92732         1.53486         0.05247
   S       -1.09304         2.30632         1.73185
   C       -2.15718         0.70064        -0.29227
   C       -2.12910        -0.65379         0.40917
   C       -0.95211        -1.48659        -0.09444
   H        1.87729         2.27197         0.03803
   H        1.86660        -2.23849        -0.06498
   H       -0.86301         2.41066        -0.59792
   H       -0.86498         1.19370         2.42518
   H       -2.17704         0.54573        -1.37459
   H       -3.05537         1.25384        -0.01322
   H       -3.06311        -1.18547         0.22040
   H       -2.04417        -0.50609         1.48842
   H       -1.13550        -1.77703        -1.13485
   H       -0.85078        -2.40505         0.48811
*
