24
 SCF done        -36.445909620359          0.000537884524
C           2.02777104428234    0.69555090459047    0.02506680267917
C           0.86650426922951    1.39799223623708   -0.02048247007342
C          -0.24590162712112    0.53008512733163   -0.01140700123717
C           0.10769958823564   -0.82657451051065    0.03979907061826
S           1.82111633065648   -1.02905246661769    0.07737334927070
C          -1.09200727806111   -1.55330131870735    0.04317656502992
C          -2.11368375964893   -0.63341936642344   -0.00520150765104
N          -1.61035228072525    0.63826674330748   -0.05466822819149
C          -2.36285252936023    1.86294952038043    0.00058877031481
C          -2.55629719080027    2.33720482967239    1.44048713813773
C          -3.51123183704523   -1.14379920423125   -0.00904976820160
C          -3.40125746177965   -2.67832160434883   -0.03435633955687
S          -1.63218455066115   -3.21569297895917    0.09433436686538
H           3.02604107910541    1.08550531448554    0.03280844082189
H           0.81740428258552    2.47144239135686   -0.05635099064276
H          -3.33382603675829    1.69469160616234   -0.47325677606245
H          -1.82340901387827    2.62308522453046   -0.57174335927526
H          -3.09916733013796    1.59086140718755    2.01545576267927
H          -3.11683536846097    3.26778396554627    1.45688023225592
H          -1.59067624099938    2.49948948536504    1.91325183889560
H          -4.06304471318138   -0.78862020609173   -0.88460949826864
H          -4.05304949026750   -0.81328388565870    0.88286558347786
H          -3.78228937963502   -3.09536024670036   -0.96525975749789
H          -3.92819050557322   -3.14042296790435    0.79826777561210
