14
 SCF done        -23.186968974550          0.000744479901
C           0.09273220381224    1.19728088991824    0.19030222504174
S          -1.07969958139308   -0.06750079605623    0.15980144784411
C           0.13901464517516   -1.23969954312484   -0.09303971763502
C           1.39058696325913   -0.68755338437487   -0.15356042511854
C           1.34693153124979    0.72795652533658    0.01251977442548
C           2.65693983338016   -1.41027960186364   -0.36392456517338
O           3.71992156131310   -0.83140999818628   -0.39088269448118
C           2.54905421399702   -2.90508761830452   -0.54547157164036
H          -0.23232616826845    2.20773475899663    0.33718089316870
H          -0.14402073939157   -2.26952926062722   -0.18187329089080
H           2.23349786980136    1.33467444606251   -0.00591523211052
H           1.92007137017168   -3.13154772303052   -1.40376080444600
H           2.10339821181145   -3.35575494708020    0.33866821719945
H           3.54035808508202   -3.32225374766566   -0.70297425618368
