# ORCA input file
# SCF done        -23.186968974550          0.000744479901
! B3LYP/G D3BJ Opt RIJCOSX def2-SVP def2/J
* xyz 0 1
   C        0.09273         1.19728         0.19030
   S       -1.07970        -0.06750         0.15980
   C        0.13901        -1.23970        -0.09304
   C        1.39059        -0.68755        -0.15356
   C        1.34693         0.72796         0.01252
   C        2.65694        -1.41028        -0.36392
   O        3.71992        -0.83141        -0.39088
   C        2.54905        -2.90509        -0.54547
   H       -0.23233         2.20773         0.33718
   H       -0.14402        -2.26953        -0.18187
   H        2.23350         1.33467        -0.00592
   H        1.92007        -3.13155        -1.40376
   H        2.10340        -3.35575         0.33867
   H        3.54036        -3.32225        -0.70297
*
