17
 SCF done        -26.831850794897          0.000398002701
C          -1.78543421260758   -0.95558265914384   -0.05854132282009
S          -1.58003300568417    0.75989237288286    0.12605773104596
C           0.13772771081435    0.56017002946236    0.12959861648242
C           0.48484621544881   -0.78943853769489   -0.00857510381249
C          -0.62277892920023   -1.65572926049489   -0.11645574925334
N           1.84037266689160   -0.86391365282991    0.00112825976923
C           2.36138853917532    0.40324822770221    0.14257112683823
C           1.31494507517292    1.31003000808177    0.22481850637693
C           3.78358196196674    0.60821708951003    0.18133207753973
C           4.39144264769583    1.78439171999347    0.31762658179725
H          -2.78382099593297   -1.34191924152834   -0.11373603999413
H          -0.56837315772750   -2.72340914529205   -0.22896835712587
H           2.39035721318868   -1.70250832959890   -0.07888233533442
H           1.39860127278364    2.37104793279418    0.33798033476731
H           4.37859200310500   -0.29278859329113    0.08750140510888
H           3.83733914361771    2.70106654133310    0.41341258120528
H           5.46387585129192    1.86353549811400    0.33788168740916
