# ORCA input file
# SCF done        -46.491700302013          0.000669374996
! B3LYP/G D3BJ Opt RIJCOSX def2-SVP def2/J
* xyz 0 1
   C       -1.65074        -1.53828         0.14741
   S       -2.81554        -0.29237         0.20128
   C       -1.63255         0.92479         0.09145
   C       -0.36571         0.39688         0.01465
   C       -0.37027        -1.04408         0.04712
   C        0.88262        -1.71757        -0.02541
   C        1.03048        -3.20746        -0.00268
   F       -0.11081        -3.89850         0.10835
   F        1.63324        -3.66948        -1.11973
   F        1.81080        -3.61904         1.01989
   C        2.03365        -0.98476        -0.12402
   C        2.03547         0.42253        -0.15628
   C        0.86025         1.12364        -0.08809
   O        0.73086         2.46838        -0.10838
   C        1.89729         3.25394        -0.20753
   H       -1.97687        -2.55622         0.19268
   H       -1.90698         1.95948         0.08744
   H        2.98125        -1.49951        -0.17935
   H        2.98489         0.92495        -0.23582
   H        1.55743         4.28785        -0.19762
   H        2.43260         3.05537        -1.14081
   H        2.56653         3.08263         0.64081
*
