# ORCA input file
# SCF done        -30.728299756712          0.000536598755
! B3LYP/G D3BJ Opt RIJCOSX def2-SVP def2/J
* xyz 0 1
   C       -1.49286        -1.25366         0.15013
   S       -2.67271        -0.02317         0.24092
   C       -1.49643         1.21362         0.15817
   C       -0.22289         0.70465         0.06389
   C       -0.22216        -0.73496         0.05927
   C        1.00693        -1.42849        -0.03281
   C        2.16797        -0.72125        -0.11588
   S        3.74605        -1.53626        -0.23496
   C        2.17689         0.71144        -0.11187
   O        3.33960         1.40482        -0.19494
   C        1.00318         1.40268        -0.02360
   H       -1.78966        -2.28296         0.16848
   H       -1.79893         2.24074         0.18330
   H        1.00349        -2.50889        -0.03597
   H        3.25892        -2.77108        -0.21207
   H        4.09075         0.80106        -0.25523
   H        1.02220         2.48013        -0.02159
*
