# ORCA input file
# SCF done        -40.413248861541          0.000753107871
! B3LYP/G D3BJ Opt RIJCOSX def2-SVP def2/J
* xyz 0 1
   C       -3.14775         0.33695         0.15001
   S       -1.99737         1.62780         0.18421
   C       -0.71710         0.48664         0.08399
   C       -1.17598        -0.81882         0.02804
   C       -2.57592        -0.89827         0.06647
   C       -0.02231        -1.79131        -0.05900
   C        0.00922        -2.72775         1.15181
   C       -0.06643        -2.59363        -1.36218
   C        1.14686        -0.83222        -0.04396
   C        0.70413         0.48089         0.03963
   S        1.99564         1.60644         0.05656
   C        3.15696         0.29742        -0.05085
   C        2.53670        -0.93340        -0.09488
   C        4.55432         0.62515        -0.08195
   C        5.55456        -0.25142        -0.15877
   H       -4.19088         0.57958         0.19465
   H       -3.14329        -1.81107         0.03470
   H       -0.87724        -3.35762         1.16102
   H        0.03692        -2.15092         2.07364
   H        0.89113        -3.36271         1.11134
   H       -0.95518        -3.21983        -1.38665
   H        0.81301        -3.22840        -1.44089
   H       -0.08923        -1.92194        -2.21745
   H        3.07924        -1.85861        -0.16163
   H        4.77394         1.68390        -0.03691
   H        5.38571        -1.31252        -0.20562
   H        6.58007         0.07209        -0.17732
*
