27
 SCF done        -40.413248861541          0.000753107871
C          -3.14774751136975    0.33694562434390    0.15001435301136
S          -1.99737066304970    1.62780468695012    0.18420751293763
C          -0.71709546276723    0.48663598199871    0.08398585041778
C          -1.17597916797494   -0.81882199957988    0.02804336074271
C          -2.57591730826599   -0.89827112053499    0.06646652626952
C          -0.02230929203351   -1.79130900308927   -0.05899809514949
C           0.00921781534468   -2.72774954353597    1.15180862225797
C          -0.06642884992330   -2.59363177358774   -1.36217816458560
C           1.14685766563636   -0.83221999588446   -0.04396324660449
C           0.70412671874364    0.48089319847948    0.03963087483078
S           1.99563889946780    1.60643854574987    0.05655921342094
C           3.15695983332637    0.29742231160279   -0.05084581096051
C           2.53669810547973   -0.93339670539713   -0.09487684856422
C           4.55432388106494    0.62514751367205   -0.08194902075107
C           5.55455918252445   -0.25142062917175   -0.15877306689437
H          -4.19088009515703    0.57957833655274    0.19464729124530
H          -3.14328602233349   -1.81106798545619    0.03469923362376
H          -0.87724143993652   -3.35762024253095    1.16101984920467
H           0.03692458359001   -2.15091982827381    2.07363755988924
H           0.89113379121238   -3.36270786112975    1.11134166403278
H          -0.95517615706069   -3.21982825662154   -1.38665267155361
H           0.81301362076249   -3.22839545061298   -1.44088994866146
H          -0.08922543958777   -1.92194457346149   -2.21744898898017
H           3.07923992799305   -1.85860697034806   -0.16162728256541
H           4.77394300621208    1.68390284015133   -0.03691339673673
H           5.38571397570726   -1.31251837120790   -0.20561839804295
H           6.58006640239474    0.07209127092251   -0.17731697183451
