# ORCA input file
# SCF done        -33.169781970497          0.000389128918
! B3LYP/G D3BJ Opt RIJCOSX def2-SVP def2/J
* xyz 0 1
   C        3.16399         0.06323         0.00092
   O        2.44660        -1.08041         0.00121
   C        1.15516        -0.66534         0.00119
   C        1.17036         0.75702         0.00078
   N        2.49150         1.15282         0.00053
   C        0.00686         1.50717         0.00061
   C       -1.15916         0.76094         0.00086
   C       -1.14876        -0.66146         0.00128
   C        0.00192        -1.42586         0.00146
   O       -2.44159        -1.07217         0.00141
   C       -3.15512         0.07388         0.00107
   N       -2.47896         1.16119         0.00076
   H        4.23381        -0.01422         0.00084
   H        0.00867         2.58226         0.00027
   H        0.00010        -2.50188         0.00176
   H       -4.22520         0.00004         0.00110
*
