15
 SCF done        -29.962095026968          0.000361435831
C           1.00084086991821    1.50181048505226    0.16370611068018
S           2.42993312154602    0.55225974963022    0.09800535251822
C           1.53251227853423   -0.93311476430510   -0.07369226431940
C           0.18518400759568   -0.66157075628131   -0.07536896188566
C          -0.10941200084760    0.72257368114277    0.05999019663092
S          -1.79623030207703    1.16999028242625    0.06956736255418
C          -2.41630652992040   -0.46207838739700   -0.11169770762042
S          -4.00625326712981   -0.79436020828061   -0.18079175505493
S          -1.19303261607948   -1.71822052512894   -0.21374143314930
C           2.24402181025965   -2.17737992692820   -0.18358395981606
C           1.68449610229139   -3.37661006589048   -0.31861786095606
H           1.05715080192057    2.56484142587325    0.27383654028393
H           3.32068837314221   -2.07899143824759   -0.14753262266823
H           0.61778587019004   -3.51334781728127   -0.35901680271459
H           2.28727148065662   -4.26380173438425   -0.39425219448271
