25
 SCF done        -42.143318050185          0.000635335773
C          -1.62740773007765    0.97825781488011   -0.00495674877228
S          -2.70273201906311   -0.34248152441856    0.01957385771215
C          -1.42218911615385   -1.50322260602795    0.04948730224783
C          -0.18511602423555   -0.85722882001349    0.04097802318651
C          -0.31182409736700    0.57677663485210    0.00875110745381
C           0.86749039953149    1.38300169933669   -0.00452722509715
C           0.75623145986428    2.85307638227882   -0.04736750134998
O          -0.27838663294932    3.47808790494749   -0.09120260567247
O           1.95876785695373    3.45873598675757   -0.02841217440895
C           1.93364882532471    4.87572677862797   -0.07179931404898
C           2.09182136665833    0.76098699757581    0.01723397709143
C           2.20581489947866   -0.64071244634267    0.04953208228470
C           1.09863102478281   -1.44034485361335    0.06031130033838
C          -1.67560949642812   -2.91277787841791    0.07737760993285
C          -2.88460098273444   -3.47312711723896    0.08727097579403
H          -2.00449369690704    1.97955682406908   -0.02915572605838
H           2.95805819794414    5.20308360552294    0.08597230487417
H           1.27741921343737    5.26859851521184    0.70767853530837
H           1.56765803887816    5.21878800019212   -1.04233332767647
H           2.98773687259814    1.36162364881996    0.00768176968489
H           3.19127863250047   -1.08182001773923    0.06521179111124
H           1.19925759064047   -2.51484959358675    0.08360930551613
H          -0.79339295432512   -3.53909974551647    0.09082442341911
H          -3.78124125817993   -2.87613033281712    0.07571194894704
H          -3.01123037017160   -4.54058585734001    0.10906830818205
