# ORCA input file
# SCF done        -42.143318050185          0.000635335773
! B3LYP/G D3BJ Opt RIJCOSX def2-SVP def2/J
* xyz 0 1
   C       -1.62741         0.97826        -0.00496
   S       -2.70273        -0.34248         0.01957
   C       -1.42219        -1.50322         0.04949
   C       -0.18512        -0.85723         0.04098
   C       -0.31182         0.57678         0.00875
   C        0.86749         1.38300        -0.00453
   C        0.75623         2.85308        -0.04737
   O       -0.27839         3.47809        -0.09120
   O        1.95877         3.45874        -0.02841
   C        1.93365         4.87573        -0.07180
   C        2.09182         0.76099         0.01723
   C        2.20581        -0.64071         0.04953
   C        1.09863        -1.44034         0.06031
   C       -1.67561        -2.91278         0.07738
   C       -2.88460        -3.47313         0.08727
   H       -2.00449         1.97956        -0.02916
   H        2.95806         5.20308         0.08597
   H        1.27742         5.26860         0.70768
   H        1.56766         5.21879        -1.04233
   H        2.98774         1.36162         0.00768
   H        3.19128        -1.08182         0.06521
   H        1.19926        -2.51485         0.08361
   H       -0.79339        -3.53910         0.09082
   H       -3.78124        -2.87613         0.07571
   H       -3.01123        -4.54059         0.10907
*
