31
 SCF done        -44.046757212444          0.000964940526
C           2.89772471318763    0.73928422526376   -0.85626492917885
N           2.13978101831553   -0.18166225544815   -1.33429300288281
C           0.92161468428479   -0.14206489122881   -0.75821033836079
C           0.75326859839351    0.83686642653340    0.19196444295475
S           2.17935584137341    1.76984109202407    0.36110578198447
C          -0.65408417189926    0.85634067075215    0.63378984075143
C          -1.04704269310330   -0.60138931449985    0.34668903044240
C          -0.32424969747038   -0.97601123132174   -0.97161108883488
C          -1.10056104747191   -0.47159276335227   -2.19924978514492
C          -0.38118980783565   -0.73107019451649   -3.51768035200688
C           0.04464121542756   -2.46321359040573   -1.04770829218501
C          -1.14689058043190   -3.40868698405664   -1.13237318140535
N          -2.48171194057540   -0.57594586383662    0.50168038705913
C          -2.74134438794516   -0.02061516748896    1.82260129595102
S          -1.32804217644124    1.07620417063380    2.30664453238127
H           3.91361949155580    0.89145627115963   -1.15967940992393
H          -1.23071799622500    1.54795399651469    0.00766845551856
H          -0.57121765026940   -1.21625892298198    1.13814597307980
H          -1.25202255272158    0.60351022468998   -2.08505368354924
H          -2.08756650071468   -0.93514824082243   -2.20575611400745
H           0.65091514013980   -0.39433494655753   -3.45658268275200
H          -0.87573516174584   -0.19055708375690   -4.32140731659609
H          -0.38581457696190   -1.78796918054625   -3.76927238615304
H           0.63399229821550   -2.71181475676334   -0.16085687192319
H           0.69340769740123   -2.60580726712324   -1.91157183816209
H          -1.77454314200811   -3.32581223795480   -0.24767049444090
H          -0.79536711261485   -4.43595169035140   -1.19768109261395
H          -1.75462375762951   -3.20155606994446   -2.00867352081516
H          -2.90764263287053   -1.49255129733444    0.41690415300902
H          -2.81691873652901   -0.77433566551528    2.61628096211606
H          -3.65271437483015    0.58001253823583    1.80237152568863
