20
 SCF done        -36.802568566731          0.000798569130
C           0.20589350057648   -1.46114551386979   -0.08797553739596
C           1.25848694070525   -0.57325514586717   -0.06826875521357
C           1.06506100133919    0.82897036266734    0.03714643286494
N           2.22491042849954    1.54837141415265    0.03884986054791
C           3.25092101119899    0.80141505620545   -0.05524504219272
S           2.96140878010185   -0.92011048725552   -0.16222186077526
C          -0.21800347356879    1.39618380965866    0.13118874323845
C          -1.27359558973447    0.48601595274507    0.10986101654342
C          -1.06978399110166   -0.91888936492583    0.00097244057115
N          -2.21440936273489   -1.66219362004418   -0.00934495360070
C          -3.25258904276977   -0.93376600259854    0.08063540782282
S          -2.98617398034794    0.78886191989370    0.19529575390822
C          -0.30917249185229    2.84183618004911    0.23557230186708
C          -1.40726263070591    3.57398816566050    0.38032277881725
H           0.34104467807589   -2.52600980203425   -0.16920280773811
H           4.25654154575857    1.17392754185146   -0.07133625196162
H          -4.25329663310485   -1.31973391182269    0.09072940514652
H           0.65700605457264    3.32451258839631    0.19028976035934
H          -2.39545385264828    3.15345358267586    0.43973392287344
H          -1.34702289225984    4.64637727446231    0.44864738431726
