# ORCA input file
# SCF done        -36.802568566731          0.000798569130
! B3LYP/G D3BJ Opt RIJCOSX def2-SVP def2/J
* xyz 0 1
   C        0.20589        -1.46115        -0.08798
   C        1.25849        -0.57326        -0.06827
   C        1.06506         0.82897         0.03715
   N        2.22491         1.54837         0.03885
   C        3.25092         0.80142        -0.05525
   S        2.96141        -0.92011        -0.16222
   C       -0.21800         1.39618         0.13119
   C       -1.27360         0.48602         0.10986
   C       -1.06978        -0.91889         0.00097
   N       -2.21441        -1.66219        -0.00934
   C       -3.25259        -0.93377         0.08064
   S       -2.98617         0.78886         0.19530
   C       -0.30917         2.84184         0.23557
   C       -1.40726         3.57399         0.38032
   H        0.34104        -2.52601        -0.16920
   H        4.25654         1.17393        -0.07134
   H       -4.25330        -1.31973         0.09073
   H        0.65701         3.32451         0.19029
   H       -2.39545         3.15345         0.43973
   H       -1.34702         4.64638         0.44865
*
