23
 SCF done        -50.680602396771          0.000595380414
C          -0.12784236170594    1.48404437702055   -0.00625001563467
C           1.09729441844998    0.84241880791567   -0.00759004256803
C           2.47261127134677    1.40788412491629   -0.01035546433487
O           2.81705719017838    2.55779046068175   -0.01166440629053
N           3.33448566578275    0.30610613727694   -0.01167053196607
C           2.65211826854602   -0.91006079589491   -0.00929690022291
O           3.13830788001738   -2.00767400752865   -0.00939239325383
C           1.20453900963383   -0.55040823761783   -0.00690833648275
C           0.09139934609076   -1.37081618395651   -0.00479712029936
C          -1.14290936847538   -0.72917454395962   -0.00346826479390
C          -1.24973329109032    0.66156274588243   -0.00418374277662
C          -2.63870513673608    1.17085568279072   -0.00275523936847
O          -2.99788307920118    2.30709156955076   -0.00336976936246
S          -3.76585819749705   -0.23105504209835   -0.00135232994835
C          -2.43796736103020   -1.44449315380265   -0.00140342711763
O          -2.61952116794365   -2.62223282894732   -0.00084966357432
C           4.72517669064702    0.49493375815166   -0.01554973227222
C           5.63476877446177   -0.46342623363674   -0.01807923296661
H          -0.21736348835903    2.55893712235558   -0.00674261565624
H           0.16731439606407   -2.44676903989017   -0.00418838112119
H           4.97606282750712    1.54751566974326   -0.01592775876769
H           5.37919456542906   -1.50703155212946   -0.01638591925042
H           6.67880314788395   -0.20846883682340   -0.01988871197084
