# ORCA input file
# SCF done        -50.680602396771          0.000595380414
! B3LYP/G D3BJ Opt RIJCOSX def2-SVP def2/J
* xyz 0 1
   C       -0.12784         1.48404        -0.00625
   C        1.09729         0.84242        -0.00759
   C        2.47261         1.40788        -0.01036
   O        2.81706         2.55779        -0.01166
   N        3.33449         0.30611        -0.01167
   C        2.65212        -0.91006        -0.00930
   O        3.13831        -2.00767        -0.00939
   C        1.20454        -0.55041        -0.00691
   C        0.09140        -1.37082        -0.00480
   C       -1.14291        -0.72917        -0.00347
   C       -1.24973         0.66156        -0.00418
   C       -2.63871         1.17086        -0.00276
   O       -2.99788         2.30709        -0.00337
   S       -3.76586        -0.23106        -0.00135
   C       -2.43797        -1.44449        -0.00140
   O       -2.61952        -2.62223        -0.00085
   C        4.72518         0.49493        -0.01555
   C        5.63477        -0.46343        -0.01808
   H       -0.21736         2.55894        -0.00674
   H        0.16731        -2.44677        -0.00419
   H        4.97606         1.54752        -0.01593
   H        5.37919        -1.50703        -0.01639
   H        6.67880        -0.20847        -0.01989
*
