26
 SCF done        -43.861415431625          0.000892612149
C          -2.41456873381690    0.65350112077656   -0.24865738527530
C          -2.66959768669465   -0.84721271678669   -0.28222754585973
O          -3.62974748156361   -1.40953891392053   -0.71250674981928
O          -1.62492227933103   -1.49097504225489    0.26871741674958
C          -0.57738487138999   -0.58881857727061    0.60336831846416
C          -1.27806897966959    0.77375888282086    0.76343728331448
C          -0.35766259884426    1.97877387535906    0.61423937634594
C           0.49397825576564    1.90906601960092   -0.64593543913101
C           1.31709584718335    0.62948084330882   -0.72196405130944
C           0.50715292990816   -0.66139616186457   -0.49962652595859
O           1.47788189459276   -1.62846677369917   -0.11771981999115
C           2.56853493527839   -1.04427916937166    0.41060811215281
O           3.47927016711553   -1.65992251236579    0.87341448748289
C           2.43135898397649    0.46881476454930    0.30905394161038
H          -3.31821478724887    1.19010014410585    0.03183909271208
H          -2.11964403361471    0.97532278588242   -1.24868941769841
H          -0.13498515577124   -0.94501539449593    1.53889418137662
H          -1.71996957025512    0.79801236759055    1.76602882465248
H           0.28729720355924    2.03745556722209    1.49261827156612
H          -0.96427990594432    2.88528028527558    0.59532555677006
H           1.16883013892900    2.76555818700298   -0.67851611255949
H          -0.14614561575041    1.96519101095399   -1.52807837844153
H           1.76760484104381    0.56573680530601   -1.71901948309810
H           0.03593930107741   -1.02550041806805   -1.41784923370507
H           3.37618908925926    0.92232456048802    0.01906266193600
H           2.15049811220565    0.85488845985486    1.29018261771348
