# ORCA input file
# SCF done        -43.861415431625          0.000892612149
! B3LYP/G D3BJ Opt RIJCOSX def2-SVP def2/J
* xyz 0 1
   C       -2.41457         0.65350        -0.24866
   C       -2.66960        -0.84721        -0.28223
   O       -3.62975        -1.40954        -0.71251
   O       -1.62492        -1.49098         0.26872
   C       -0.57738        -0.58882         0.60337
   C       -1.27807         0.77376         0.76344
   C       -0.35766         1.97877         0.61424
   C        0.49398         1.90907        -0.64594
   C        1.31710         0.62948        -0.72196
   C        0.50715        -0.66140        -0.49963
   O        1.47788        -1.62847        -0.11772
   C        2.56853        -1.04428         0.41061
   O        3.47927        -1.65992         0.87341
   C        2.43136         0.46881         0.30905
   H       -3.31821         1.19010         0.03184
   H       -2.11964         0.97532        -1.24869
   H       -0.13499        -0.94502         1.53889
   H       -1.71997         0.79801         1.76603
   H        0.28730         2.03746         1.49262
   H       -0.96428         2.88528         0.59533
   H        1.16883         2.76556        -0.67852
   H       -0.14615         1.96519        -1.52808
   H        1.76760         0.56574        -1.71902
   H        0.03594        -1.02550        -1.41785
   H        3.37619         0.92232         0.01906
   H        2.15050         0.85489         1.29018
*
