# ORCA input file
# SCF done        -39.480796803798          0.000682623674
! B3LYP/G D3BJ Opt RIJCOSX def2-SVP def2/J
* xyz 0 1
   C        0.81815         1.04103         0.07529
   S        1.11202        -0.46306         0.85266
   C        0.06307        -1.28652        -0.26835
   C       -0.46396        -0.40518        -1.17768
   C       -0.03129         0.91852        -0.97825
   C       -0.15496        -2.69150        -0.16844
   C        0.37428        -3.57457         0.74065
   C       -0.05601        -4.89222         0.55227
   C       -0.92166        -5.03875        -0.50410
   S       -1.21132        -3.50959        -1.28625
   C       -1.55203        -6.22774        -0.97368
   S       -1.28882        -7.75389        -0.17477
   C       -2.32858        -8.55251        -1.28603
   C       -2.84425        -7.70174        -2.21173
   C       -2.40476        -6.37686        -2.03754
   H        1.29629         1.92458         0.44904
   H       -1.13866        -0.71024        -1.95791
   H       -0.33950         1.74539        -1.59180
   H        1.05284        -3.26752         1.51684
   H        0.25214        -5.72021         1.16604
   H       -2.49291        -9.60644        -1.18236
   H       -3.51616        -8.00919        -2.99296
   H       -2.69808        -5.55484        -2.66618
*
