# ORCA input file
# SCF done        -55.979544455762          0.000637388940
! B3LYP/G D3BJ Opt RIJCOSX def2-SVP def2/J
* xyz 0 1
   C        1.87499         1.43734        -3.57090
   C        2.39225         1.25052        -2.28976
   C        3.14177         2.36454        -1.66375
   O        3.00591         3.52155        -1.99753
   C        4.14234         1.98167        -0.63551
   C        5.05096         0.97620        -0.77655
   S        6.17534         0.92159         0.52101
   C        5.42513         2.27258         1.27038
   C        4.36519         2.74290         0.55421
   C        3.43487         3.80207         1.01880
   O        2.23473         3.65323         0.93767
   C        4.05928         4.99311         1.64063
   C        3.31151         5.72899         2.55878
   C        3.86100         6.83230         3.18189
   C        5.15604         7.22313         2.87949
   C        5.89514         6.51419         1.94571
   C        5.35434         5.40136         1.32837
   C        2.18160         0.03810        -1.63624
   C        1.48391        -0.97467        -2.26811
   C        0.99819        -0.79169        -3.55316
   C        1.19025         0.41775        -4.20257
   H        2.03158         2.38937        -4.05599
   H        5.14147         0.28118        -1.58812
   H        5.78818         2.62559         2.21562
   H        2.30304         5.40954         2.77578
   H        3.28158         7.39038         3.90236
   H        5.58781         8.08505         3.36672
   H        6.89736         6.83180         1.69817
   H        5.92647         4.86383         0.58708
   H        2.54168        -0.10178        -0.62794
   H        1.31762        -1.91190        -1.75755
   H        0.46462        -1.59093        -4.04645
   H        0.80350         0.56352        -5.20032
*
