33
 SCF done        -55.979544455762          0.000637388940
C           1.87498978696613    1.43733740043242   -3.57089940928896
C           2.39225005923804    1.25051556998929   -2.28976397401278
C           3.14176791523167    2.36453656061093   -1.66374795973214
O           3.00590842326364    3.52154709865617   -1.99753207089246
C           4.14234276088084    1.98167150597058   -0.63551377335889
C           5.05095656755693    0.97619509150683   -0.77654667626560
S           6.17533999432396    0.92159013438512    0.52101446341115
C           5.42513355285800    2.27257585954828    1.27038461334439
C           4.36519083873074    2.74290109940661    0.55420577531355
C           3.43486775100609    3.80207440975595    1.01879808008557
O           2.23473171043890    3.65323468762357    0.93766979628335
C           4.05927828247510    4.99310550696821    1.64063442816685
C           3.31151063275833    5.72898832654194    2.55878497375908
C           3.86100049073198    6.83230330361050    3.18188672072419
C           5.15604204017770    7.22313192121603    2.87949232759827
C           5.89514039937229    6.51418786487178    1.94571286018871
C           5.35434423161287    5.40136038158981    1.32836779824256
C           2.18159749227285    0.03809656667586   -1.63623963879531
C           1.48391263055051   -0.97466594307330   -2.26811336493007
C           0.99818656174737   -0.79168909482882   -3.55316452076446
C           1.19024799636801    0.41774573354555   -4.20257183384431
H           2.03158287056449    2.38936844812237   -4.05598743511108
H           5.14147409110953    0.28117501229879   -1.58812457412510
H           5.78817829589198    2.62558863954891    2.21562160861055
H           2.30304163820523    5.40954206689336    2.77577542051354
H           3.28158416548143    7.39037930079401    3.90235997137324
H           5.58780668313076    8.08505281695635    3.36671835428461
H           6.89736360014786    6.83179792765613    1.69817319252078
H           5.92646976762307    4.86382815590207    0.58708476057636
H           2.54168028454614   -0.10177666801502   -0.62793654095818
H           1.31761718071521   -1.91189660667813   -1.75755360929184
H           0.46461797154019   -1.59092611014437   -4.04644807770075
H           0.80350333248148    0.56352303166257   -5.20032168592439
