# ORCA input file
# SCF done        -20.153128247083          0.000303963992
! B3LYP/G D3BJ Opt RIJCOSX def2-SVP def2/J
* xyz 0 1
   C        1.40863         0.63442         0.10303
   C        0.17899         1.20336        -0.00243
   C       -0.17672         2.65039        -0.03172
   C       -0.46801         3.11829        -1.45927
   S       -1.04956        -0.00954        -0.17776
   C        0.12325        -1.26598        -0.10222
   C        1.37843        -0.77879         0.04809
   H        2.31319         1.20483         0.22117
   H        0.65480         3.22612         0.38065
   H       -1.05791         2.82625         0.58984
   H        0.40277         2.96249        -2.09223
   H       -0.72019         4.17591        -1.46733
   H       -1.30205         2.55767        -1.87543
   H       -0.19652        -2.28642        -0.17337
   H        2.25503        -1.39795         0.11779
*
