15
 SCF done        -20.153128247083          0.000303963992
C           1.40862923869499    0.63441733057880    0.10303198095019
C           0.17898845485633    1.20335664053320   -0.00243103786052
C          -0.17671888676224    2.65039214655901   -0.03171702911976
C          -0.46801092528579    3.11829361241782   -1.45926806493586
S          -1.04955862914534   -0.00954327045789   -0.17776403067416
C           0.12324737335946   -1.26598450535906   -0.10222443316485
C           1.37842505097215   -0.77878711336277    0.04808750418436
H           2.31319059316276    1.20482718484025    0.22117440888951
H           0.65480080541916    3.22612444384962    0.38064504547060
H          -1.05791178165026    2.82625406897668    0.58984093389198
H           0.40277144367717    2.96249379784549   -2.09222885601973
H          -0.72018672938610    4.17590679595667   -1.46733156760965
H          -1.30204978471916    2.55766622134228   -1.87543168760215
H          -0.19651839986804   -2.28642316617875   -0.17337285234153
H           2.25503217667490   -1.39795418754135    0.11778968594156
