13
 SCF done        -33.739056687746          0.000288213344
C          -1.26994283218901   -0.11976302200163    0.00396844845738
S          -0.49861255928907    1.41286480972536    0.00155105494206
C           1.04669783391403    0.69609772568223   -0.00458206311460
C           0.97228458905366   -0.66774230254779   -0.00515161807815
C          -0.37350573617305   -1.14844935192799   -0.00019624456673
O          -0.75170141726700   -2.44283563290207    0.00029450514563
C           2.15576684832506   -1.57021938208508   -0.01140608905830
F           3.31789922009260   -0.91452311555529   -0.00708660066432
F           2.17261383425534   -2.40150060145990    1.05453184404112
F           2.17259022382756   -2.38706046624981   -1.08834812403853
H          -2.33683102914028   -0.19747151076452    0.00803680442075
H           1.93406297049559    1.29681307899671   -0.00760410440330
H           0.01086805409458   -3.03361022891022   -0.00032781308300
