# ORCA input file
# SCF done        -33.739056687746          0.000288213344
! B3LYP/G D3BJ Opt RIJCOSX def2-SVP def2/J
* xyz 0 1
   C       -1.26994        -0.11976         0.00397
   S       -0.49861         1.41286         0.00155
   C        1.04670         0.69610        -0.00458
   C        0.97228        -0.66774        -0.00515
   C       -0.37351        -1.14845        -0.00020
   O       -0.75170        -2.44284         0.00029
   C        2.15577        -1.57022        -0.01141
   F        3.31790        -0.91452        -0.00709
   F        2.17261        -2.40150         1.05453
   F        2.17259        -2.38706        -1.08835
   H       -2.33683        -0.19747         0.00804
   H        1.93406         1.29681        -0.00760
   H        0.01087        -3.03361        -0.00033
*
