29
 SCF done        -38.607206993587          0.000965951188
C          -0.01317540268532    1.17460873880927   -0.27811438788435
S          -1.35907077123701    0.15540680218511   -0.58497199824542
C           1.15701218108097    0.49190614023257   -0.14292654822547
C           2.48312406140419    1.13849294743118    0.13724706818430
C           2.61985097912054    2.55146410051580   -0.46000175873776
N           2.46170767019691    2.62874599274660   -1.89849579347609
C           0.97045006170176   -0.91598940281311   -0.27951438861939
C           2.09668072570764   -1.89929493965008   -0.23613698184018
C           2.73761907978180   -2.07138811247316   -1.63586430458830
N           1.87773128265630   -2.64576800722862   -2.64556969748659
C          -0.33934433172924   -1.25792659224894   -0.52862871340858
C          -0.90691594394677   -2.56847825690886   -0.71004473818000
C          -2.15924691784464   -2.80892572862309   -1.08698596452666
H          -0.18001748528750    2.23140511346699   -0.21233591755526
H           3.28261226091389    0.51416841499720   -0.26832354923300
H           2.62935741135645    1.20041141607218    1.22031045147310
H           3.61438057735053    2.93682614404666   -0.21640887627086
H           1.88469443332610    3.22144771534825   -0.00763875880062
H           3.14728101933770    2.03970507103927   -2.36069471517366
H           1.54138952478804    2.29524594490901   -2.16728673555705
H           1.74092750818597   -2.87202063272048    0.10901066330606
H           2.86078796505281   -1.55899154576679    0.46396227135105
H           3.61829509303872   -2.71311327129986   -1.54384089753512
H           3.06540886499825   -1.09605074097821   -2.00670661930115
H           1.58322501763354   -3.57835215528509   -2.37684413768011
H           1.04192308930294   -2.08229748074117   -2.76349754005264
H          -0.24094826976761   -3.39832063387608   -0.51273327854290
H          -2.84913228755621   -2.00691281595028   -1.29486866388207
H          -2.53190739688112   -3.81130422523609   -1.20003548951173
