# ORCA input file
# SCF done        -38.607206993587          0.000965951188
! B3LYP/G D3BJ Opt RIJCOSX def2-SVP def2/J
* xyz 0 1
   C       -0.01318         1.17461        -0.27811
   S       -1.35907         0.15541        -0.58497
   C        1.15701         0.49191        -0.14293
   C        2.48312         1.13849         0.13725
   C        2.61985         2.55146        -0.46000
   N        2.46171         2.62875        -1.89850
   C        0.97045        -0.91599        -0.27951
   C        2.09668        -1.89929        -0.23614
   C        2.73762        -2.07139        -1.63586
   N        1.87773        -2.64577        -2.64557
   C       -0.33934        -1.25793        -0.52863
   C       -0.90692        -2.56848        -0.71004
   C       -2.15925        -2.80893        -1.08699
   H       -0.18002         2.23141        -0.21234
   H        3.28261         0.51417        -0.26832
   H        2.62936         1.20041         1.22031
   H        3.61438         2.93683        -0.21641
   H        1.88469         3.22145        -0.00764
   H        3.14728         2.03971        -2.36069
   H        1.54139         2.29525        -2.16729
   H        1.74093        -2.87202         0.10901
   H        2.86079        -1.55899         0.46396
   H        3.61830        -2.71311        -1.54384
   H        3.06541        -1.09605        -2.00671
   H        1.58323        -3.57835        -2.37684
   H        1.04192        -2.08230        -2.76350
   H       -0.24095        -3.39832        -0.51273
   H       -2.84913        -2.00691        -1.29487
   H       -2.53191        -3.81130        -1.20004
*
