19
 SCF done        -26.732346346398          0.000309767072
C          -2.13830810902460   -0.02060997541828   -0.09334928084750
C          -1.35096167201031   -1.11140091983506   -0.14043911892524
C           0.00741422869210   -0.67083881806472   -0.03648853037497
N           1.26890694078146   -1.15532243408999   -0.00868785042636
C           2.14150538890363   -0.09751458061743    0.12138908810686
C           1.39905538245776    1.08098820401217    0.17627821338145
C           0.05853589439417    0.71553294100244    0.07657602986728
C          -1.33394007629855    1.24622179486231    0.04767177818146
C           3.55750242564213   -0.32007736493429    0.18148922449127
C           4.48835853964347    0.62441770573598    0.30767934799551
H          -3.21208920038013   -0.00999971562924   -0.14654155041632
H          -1.67331803045681   -2.13283007507219   -0.23801287094455
H           1.54919740731311   -2.12009611080064   -0.07170920249470
H           1.80385047332386    2.06842941509008    0.27604561105525
H          -1.50992386016002    1.92163664196779   -0.79221686246474
H          -1.59893149817266    1.78373613898215    0.96051408865865
H           3.86173702146942   -1.35901750262524    0.11724237300726
H           4.23206606165818    1.66667451390459    0.37456203301559
H           5.53527268222378    0.38098014152949    0.34820747913383
