# ORCA input file
# SCF done        -34.340299303843          0.000797974753
! B3LYP/G D3BJ Opt RIJCOSX def2-SVP def2/J
* xyz 0 1
   C        1.44261        -0.07694         0.43945
   C        0.82093         1.14607         0.62174
   C       -0.51269         1.31792         0.28020
   C       -1.20283         2.64142         0.48066
   N       -2.13224         2.90669        -0.60896
   C       -1.21297         0.24063        -0.24976
   C       -0.59249        -0.97968        -0.43159
   C        0.74322        -1.15285        -0.08767
   C        1.40774        -2.49126        -0.28235
   N        1.00727        -3.08826        -1.53555
   C        1.16016        -4.43618        -1.75640
   C        1.26111        -5.01070        -2.95016
   H        2.48324        -0.19333         0.70947
   H        1.38199         1.97462         1.03188
   H       -0.44188         3.43095         0.61125
   H       -1.79287         2.59770         1.40466
   H       -1.63120         2.95213        -1.49066
   H       -2.59824         3.79580        -0.46694
   H       -2.24835         0.37814        -0.52009
   H       -1.13953        -1.81359        -0.84615
   H        1.09538        -3.16928         0.52188
   H        2.50231        -2.37181        -0.20837
   H        1.17752        -2.50718        -2.34542
   H        1.13032        -5.03315        -0.85380
   H        1.29037        -4.43199        -3.85779
   H        1.29586        -6.07840        -3.05278
*
