30
 SCF done        -38.071614497072          0.000692834879
C           0.86889215364830    0.62476152325089    0.42700302376455
C           1.87461777147068   -0.18100400785570    0.14077110946635
C           3.03086045765401    0.56244673016699   -0.46722384174758
C           2.46972846751360    1.98064869031858   -0.73803791991224
C           1.15858287942206    2.04940566928579    0.07346529492072
C           3.58451658103757    2.96551049390852   -0.33870189360511
C           4.41594353052685    2.21287463254401    0.71881087000143
C           3.89558245544062    2.77384630472633    2.01652522994542
C           3.18773245564705    3.87384733842228    1.82161868944809
C           3.11057677836633    4.24376753773728    0.36773101400093
C           4.17632868498262    0.74731726250183    0.49755158283845
C           4.90446592995560   -0.21235717521918    1.07430779828398
C           4.76253115915762   -1.63183757261130    0.85527558709772
C           5.42648528855405   -2.55040956428140    1.55089070682540
H          -0.06042500502720    0.34102483925543    0.89146634569296
H           1.91477157937751   -1.23844520601915    0.33266565205820
H           3.38917963060820    0.07193821849160   -1.37842159332126
H           2.22948816900398    2.10095969163595   -1.79717106976975
H           0.34621124563375    2.49971761173849   -0.49987519835981
H           1.27651882797173    2.62181260700589    0.99507722376291
H           4.18209672686116    3.19783571344946   -1.22279538440603
H           5.48870388892772    2.43040950885554    0.64792437730277
H           4.11861914716978    2.30552125364177    2.95895178998208
H           2.72729906836879    4.47877568218134    2.58486746307529
H           3.79501817437750    5.07250546833829    0.16232602247613
H           2.11443222873301    4.55720291274527    0.05535382068701
H           5.68611408583475    0.07683431800288    1.76712471358667
H           4.08794450243466   -1.93911125460907    0.06874683772851
H           6.10479894045476   -2.27700115764135    2.34246999404659
H           5.31291419589785   -3.60370806996695    1.36182175412907
