# ORCA input file
# SCF done        -38.071614497072          0.000692834879
! B3LYP/G D3BJ Opt RIJCOSX def2-SVP def2/J
* xyz 0 1
   C        0.86889         0.62476         0.42700
   C        1.87462        -0.18100         0.14077
   C        3.03086         0.56245        -0.46722
   C        2.46973         1.98065        -0.73804
   C        1.15858         2.04941         0.07347
   C        3.58452         2.96551        -0.33870
   C        4.41594         2.21287         0.71881
   C        3.89558         2.77385         2.01653
   C        3.18773         3.87385         1.82162
   C        3.11058         4.24377         0.36773
   C        4.17633         0.74732         0.49755
   C        4.90447        -0.21236         1.07431
   C        4.76253        -1.63184         0.85528
   C        5.42649        -2.55041         1.55089
   H       -0.06043         0.34102         0.89147
   H        1.91477        -1.23845         0.33267
   H        3.38918         0.07194        -1.37842
   H        2.22949         2.10096        -1.79717
   H        0.34621         2.49972        -0.49988
   H        1.27652         2.62181         0.99508
   H        4.18210         3.19784        -1.22280
   H        5.48870         2.43041         0.64792
   H        4.11862         2.30552         2.95895
   H        2.72730         4.47878         2.58487
   H        3.79502         5.07251         0.16233
   H        2.11443         4.55720         0.05535
   H        5.68611         0.07683         1.76712
   H        4.08794        -1.93911         0.06875
   H        6.10480        -2.27700         2.34247
   H        5.31291        -3.60371         1.36182
*
