# ORCA input file
# SCF done        -22.992630765100          0.000319125685
! B3LYP/G D3BJ Opt RIJCOSX def2-SVP def2/J
* xyz 0 1
   C       -2.05452         0.00134        -0.00159
   O       -1.29542         1.12626        -0.00019
   C       -0.02123         0.69763        -0.00050
   C        1.31703         1.15164         0.00013
   C        2.05765         0.00396        -0.00086
   O        1.29856        -1.12096        -0.00235
   C        0.02436        -0.69233        -0.00200
   C       -1.31389        -1.14634        -0.00264
   H       -3.11685         0.14378        -0.00170
   H        1.68352         2.15634         0.00124
   H        3.11999        -0.13848        -0.00074
   H       -1.68040        -2.15103        -0.00378
*
