# ORCA input file
# SCF done        -31.343617822269          0.000873872731
! B3LYP/G D3BJ Opt RIJCOSX def2-SVP def2/J
* xyz 0 1
   C       -1.16189        -1.34119         0.12940
   S       -2.39577        -0.14264         0.05227
   C       -1.27402         1.18197        -0.08804
   C        0.02146         0.68740        -0.07345
   C        0.06188        -0.74513         0.05048
   N        1.36750        -1.13871         0.05633
   C        2.15430        -0.00604        -0.05855
   C        3.55226        -0.08043        -0.08062
   N        4.69920        -0.13518        -0.09787
   C        1.36962         1.12168        -0.14021
   C       -1.79107         2.51355        -0.18840
   C       -1.06295         3.62453        -0.30187
   H       -1.42149        -2.37512         0.22504
   H        1.71393        -2.07876         0.13315
   H        1.73814         2.12280        -0.23520
   H       -2.87199         2.57965        -0.16506
   H        0.01081         3.60525        -0.33096
   H       -1.53084         4.59043        -0.37107
*
