27
 SCF done        -51.671395589354          0.000581028488
C           1.56699276141918   -1.35860589017092   -0.09301502227425
S           2.78410151610420   -0.16550676060638   -0.19538609277239
C           1.61218097103464    1.11858368739541   -0.15023152390440
C           0.33679157799783    0.60376110043612   -0.07246299999176
C           0.31846728391653   -0.81417968772566   -0.03469105229678
C          -0.93808457762118   -1.62232261415539   -0.00422473992207
N          -1.19977077346826   -2.18155359676665   -1.36407943402565
O          -1.60901224444759   -3.31366212683797   -1.41749210817481
O          -1.01849534572571   -1.45407691036119   -2.31021753211881
C          -2.14891514138914   -0.76622516786677    0.38365299362864
C          -2.14652149833470    0.55335929968173   -0.37991430614944
C          -0.92116954042513    1.40396100848096   -0.01899152151142
N          -1.13774809421942    1.91773404267601    1.36602184484652
O          -1.55687348981863    3.04455388094979    1.46924376840214
O          -0.91653956767451    1.16527992373585    2.28250360611818
C           2.12094816627691    2.46629405694372   -0.23807039962678
C           1.50026004906040    3.61255993111566    0.02955069941176
H           1.83205320207845   -2.39735410043797   -0.08182937585761
H          -0.84927722011708   -2.48414933433268    0.66356583232058
H          -2.09456097859544   -0.58157133079914    1.45893136971115
H          -3.07001279110334   -1.31677217599652    0.18248427553320
H          -3.05765598521422    1.11487306445386   -0.16403063290450
H          -2.11246488794223    0.36443794544859   -1.45545885416650
H          -0.86879927665885    2.28040232020872   -0.67145963408500
H           3.15721459212745    2.50473536432799   -0.55098453033636
H           0.49272924764468    3.69794340476339    0.39179333606669
H           2.02387204509510    4.54489066543969   -0.09323796592045
