# ORCA input file
# SCF done        -51.671395589354          0.000581028488
! B3LYP/G D3BJ Opt RIJCOSX def2-SVP def2/J
* xyz 0 1
   C        1.56699        -1.35861        -0.09302
   S        2.78410        -0.16551        -0.19539
   C        1.61218         1.11858        -0.15023
   C        0.33679         0.60376        -0.07246
   C        0.31847        -0.81418        -0.03469
   C       -0.93808        -1.62232        -0.00422
   N       -1.19977        -2.18155        -1.36408
   O       -1.60901        -3.31366        -1.41749
   O       -1.01850        -1.45408        -2.31022
   C       -2.14892        -0.76623         0.38365
   C       -2.14652         0.55336        -0.37991
   C       -0.92117         1.40396        -0.01899
   N       -1.13775         1.91773         1.36602
   O       -1.55687         3.04455         1.46924
   O       -0.91654         1.16528         2.28250
   C        2.12095         2.46629        -0.23807
   C        1.50026         3.61256         0.02955
   H        1.83205        -2.39735        -0.08183
   H       -0.84928        -2.48415         0.66357
   H       -2.09456        -0.58157         1.45893
   H       -3.07001        -1.31677         0.18248
   H       -3.05766         1.11487        -0.16403
   H       -2.11246         0.36444        -1.45546
   H       -0.86880         2.28040        -0.67146
   H        3.15721         2.50474        -0.55098
   H        0.49273         3.69794         0.39179
   H        2.02387         4.54489        -0.09324
*
