# ORCA input file
# SCF done        -21.158602201529          0.000845942062
! B3LYP/G D3BJ Opt RIJCOSX def2-SVP def2/J
* xyz 0 1
   C        1.40918        -0.18322         0.07829
   C        0.87053         1.09211         0.11419
   C       -0.49465         1.27059        -0.00201
   C       -1.35272         0.18094        -0.16173
   C       -0.79418        -1.09745        -0.19370
   C        0.57049        -1.27549        -0.07490
   C       -2.78586         0.42461        -0.28007
   C       -3.72357        -0.47170        -0.56408
   H        2.47568        -0.32611         0.17156
   H        1.51733         1.94921         0.23493
   H       -0.90802         2.26934         0.02673
   H       -1.43177        -1.96101        -0.30425
   H        0.98491        -2.27317        -0.09929
   H       -3.07971         1.45570        -0.11945
   H       -3.50277        -1.50893        -0.75032
   H       -4.76149        -0.19376        -0.62998
*
