23
 SCF done        -35.917998717274          0.000596614725
C          -1.75375929824355   -1.58529141972317    0.22059835126798
S          -2.95219826087540   -0.38147546994201    0.41455600171807
C          -1.79376671032698    0.86827005872603    0.41220224668209
C          -0.51849438082868    0.37830078108224    0.26537956117850
C          -0.48749716306454   -1.05516267273343    0.14817985916702
C           0.76595885786760   -1.73235271360856   -0.00388894593878
C           1.89543970543752   -0.95597751285300   -0.03284740680761
C           1.87338677158149    0.44933982965952    0.08064802358756
C           0.69570126960663    1.12910322637824    0.22682292381592
O           0.55006459847335    2.47707959180000    0.33942352174432
C           1.70831536941698    3.27423079783212    0.30566635434914
C           0.79823304986314   -3.17980477302201   -0.14118020606737
C           1.84904432436755   -3.96181341141817    0.08087584489662
H          -2.05705440758289   -2.61132165778601    0.17657218113388
H          -2.09372014126283    1.89019622682179    0.51973513008872
H           2.85751696711360   -1.42639665115577   -0.16772480914586
H           2.81585596548508    0.97254231390370    0.04138039012830
H           1.36340606957776    4.30197676552005    0.40600865803093
H           2.24406168513419    3.16216857753715   -0.64241149720390
H           2.38322273707891    3.03538049492709    1.13378589204803
H          -0.13557819691994   -3.63495528590288   -0.44363367126015
H           2.79734049538755   -3.57624732055319    0.41336127315022
H           1.79270069271353   -5.02831977548974   -0.05309967656370
