# ORCA input file
# SCF done        -35.917998717274          0.000596614725
! B3LYP/G D3BJ Opt RIJCOSX def2-SVP def2/J
* xyz 0 1
   C       -1.75376        -1.58529         0.22060
   S       -2.95220        -0.38148         0.41456
   C       -1.79377         0.86827         0.41220
   C       -0.51849         0.37830         0.26538
   C       -0.48750        -1.05516         0.14818
   C        0.76596        -1.73235        -0.00389
   C        1.89544        -0.95598        -0.03285
   C        1.87339         0.44934         0.08065
   C        0.69570         1.12910         0.22682
   O        0.55006         2.47708         0.33942
   C        1.70832         3.27423         0.30567
   C        0.79823        -3.17980        -0.14118
   C        1.84904        -3.96181         0.08088
   H       -2.05705        -2.61132         0.17657
   H       -2.09372         1.89020         0.51974
   H        2.85752        -1.42640        -0.16772
   H        2.81586         0.97254         0.04138
   H        1.36341         4.30198         0.40601
   H        2.24406         3.16217        -0.64241
   H        2.38322         3.03538         1.13379
   H       -0.13558        -3.63496        -0.44363
   H        2.79734        -3.57625         0.41336
   H        1.79270        -5.02832        -0.05310
*
