16
 SCF done        -24.632632740179          0.000831849734
C          -0.88408594670848   -0.72248976409407    0.12124531217605
S          -0.46303909582955    0.97103084543269    0.07080701549289
C           1.27864206848164    0.66728430419874   -0.08316666984156
C           1.43475703217619   -0.68486684487556   -0.08393424229909
C           0.24211507932710   -1.44878720054265    0.02222773747749
C           1.08570188428850   -2.70054899880477   -0.06541912411076
N           2.27351421139306   -1.81365166046977   -0.04975602030423
C           2.20623826593071    1.75666614202015   -0.17947696790199
C           3.52714683811107    1.60252889417057   -0.24068045223032
H          -1.91490705971135   -1.00014214395421    0.20998037763110
H           0.94897520118284   -3.27538203627261   -0.98346216849358
H           1.05274450530305   -3.35922399592775    0.80274706396618
H           3.01765660220993   -1.93581931953055   -0.72236304732906
H           1.76537794198375    2.74343553173405   -0.19429284421371
H           3.98058239765210    0.62659529190919   -0.21396283080229
H           4.19073007420946    2.44551095500652   -0.31183313921717
