# ORCA input file
# SCF done        -34.799738579890          0.000469755866
! B3LYP/G D3BJ Opt RIJCOSX def2-SVP def2/J
* xyz 0 1
   C       -1.37796         1.25380        -0.05327
   S       -2.65700         0.11659        -0.14962
   C       -1.57776        -1.22707        -0.13902
   C       -0.29028        -0.80047        -0.06426
   C       -0.15926         0.63007        -0.01417
   C        1.20139         1.03060         0.06185
   C        2.04835        -0.03295         0.06906
   C        3.51006        -0.02729         0.13614
   O        4.19724        -1.01854         0.14630
   O        4.00127         1.22317         0.18536
   C        5.41654         1.32112         0.24882
   S        1.25575        -1.59816        -0.01509
   H       -1.59388         2.30241        -0.03133
   H       -1.96203        -2.22443        -0.18821
   H        1.53626         2.05025         0.10864
   H        5.64260         2.38025         0.34121
   H        5.86581         0.91016        -0.65774
   H        5.79701         0.76849         1.11020
*
