18
 SCF done        -34.799738579890          0.000469755866
C          -1.37795932140147    1.25380080437981   -0.05327074823860
S          -2.65699972860555    0.11659309584068   -0.14962310211260
C          -1.57776139304786   -1.22707032334491   -0.13902380140430
C          -0.29027891921600   -0.80047304875080   -0.06425972761134
C          -0.15926473818604    0.63007412601282   -0.01416765363088
C           1.20139432718101    1.03060259476222    0.06184974279793
C           2.04834982983734   -0.03294625725162    0.06905706815480
C           3.51005996646423   -0.02728788846067    0.13614208916631
O           4.19723886205627   -1.01853865132953    0.14630222981729
O           4.00126837731161    1.22317298188351    0.18535592997689
C           5.41653958875035    1.32112153798005    0.24881869935276
S           1.25574887979495   -1.59815510270508   -0.01509093080807
H          -1.59388359635260    2.30241448964985   -0.03132561341336
H          -1.96203177043897   -2.22443202709304   -0.18820572553794
H           1.53626382415206    2.05025104966852    0.10863617286755
H           5.64260317530994    2.38024807645605    0.34120554801021
H           5.86580631776632    0.91015759421358   -0.65773580666356
H           5.79700631862441    0.76848694808855    1.11019562927692
