14
 SCF done        -21.730976211638          0.000673210337
C          -1.30191345261335   -1.12507368282747   -0.00280847755985
N          -2.07281942347153    0.00721563264454   -0.00186011054260
C          -1.31190460276310    1.13674947417509   -0.00062599464720
C           0.00597396508996    0.73546075803268   -0.00060646049217
C           0.00007954985289   -0.69575933252734   -0.00200602590659
N           1.29693609092698   -1.12603593401199   -0.00205502237790
C           2.10760642262948   -0.01237945474159   -0.00076514897968
C           1.37457973469366    1.13274373328709    0.00030924833997
H          -1.74090707899740   -2.10178400142413   -0.00389710130832
H          -3.07905722961970    0.00059133711294   -0.00210054091967
H          -1.75851865378000    2.11022257441922    0.00017862373368
H           1.61478127411606   -2.07825863551621   -0.00286202021400
H           3.17551906639552   -0.12876903281880   -0.00063246555706
H           1.75807433754053    2.13348656419599    0.00148149643139
