# ORCA input file
# SCF done        -21.730976211638          0.000673210337
! B3LYP/G D3BJ Opt RIJCOSX def2-SVP def2/J
* xyz 0 1
   C       -1.30191        -1.12507        -0.00281
   N       -2.07282         0.00722        -0.00186
   C       -1.31190         1.13675        -0.00063
   C        0.00597         0.73546        -0.00061
   C        0.00008        -0.69576        -0.00201
   N        1.29694        -1.12604        -0.00206
   C        2.10761        -0.01238        -0.00077
   C        1.37458         1.13274         0.00031
   H       -1.74091        -2.10178        -0.00390
   H       -3.07906         0.00059        -0.00210
   H       -1.75852         2.11022         0.00018
   H        1.61478        -2.07826        -0.00286
   H        3.17552        -0.12877        -0.00063
   H        1.75807         2.13349         0.00148
*
