16
 SCF done        -23.522631962709          0.000514945850
C          -1.05433546332249    0.05809486400950   -0.19856555000732
N          -0.20522079384509    1.11387636604746   -0.19877107054683
C           1.06196976066550    0.67940888073553    0.08401672878322
C           1.00188145408948   -0.69078897748582    0.26441111180053
C          -0.33465293975718   -1.07533330150846    0.08399973342635
C           2.15319704118016    1.54668917372004    0.15894952338487
C           3.09862752194982    2.29984442892873    0.22498491391266
C           4.18834265999451    3.18001862815492    0.30505108287748
C           5.41749581012484    2.80513071288539    0.65305290503123
H          -2.10124712443791    0.18122570543904   -0.39615096484351
H          -0.45419384063725    2.07273315720358   -0.37657505273855
H           1.83154924317178   -1.32804590174022    0.49758756409915
H          -0.72367031726194   -2.07186659391058    0.15486562354595
H           3.96838927118486    4.21380488544677    0.06422016779828
H           5.64546426652379    1.78080518031872    0.89514379217412
H           6.22794345037698    3.51137279175520    0.70524949130259
