19
 SCF done        -27.873328194795          0.000736733073
C          -1.21076149132144   -1.40142770565933   -0.00502496762788
S          -2.42144155417182   -0.17411874111071   -0.02681410645819
C          -1.26332458178627    1.12654094255852   -0.03603756654877
C          -1.69385144448208    2.55368436020436   -0.00054811019841
C          -1.78145017273860    3.07767404717012    1.43552816248840
C          -0.00863685892224    0.59133995042747   -0.00800790770364
C           0.03641555199013   -0.84627357544957    0.00312381230581
C           1.42011173480308   -1.20425478972783    0.01802403061066
C           2.12309626795280   -0.04308284785272    0.01442408996094
N           1.28336350602794    1.04719584719583    0.00119630022489
H          -1.50534476739061   -2.43047033786983    0.00135963123083
H          -2.67079429786654    2.64851784623873   -0.47752067861001
H          -0.97925515984580    3.15850112487357   -0.56633737072145
H          -2.52119690123464    2.51077897619253    1.99587542910602
H          -2.06963278123500    4.12632886874710    1.44000455274587
H          -0.82109421391439    2.97714672596144    1.93698197112254
H           1.82272664788249   -2.19672127784203    0.02845655471582
H           3.18762582655383    0.10021318718079    0.02260690775697
H           1.57437468969917    2.00771739876158   -0.00779073440039
