# ORCA input file
# SCF done        -27.873328194795          0.000736733073
! B3LYP/G D3BJ Opt RIJCOSX def2-SVP def2/J
* xyz 0 1
   C       -1.21076        -1.40143        -0.00502
   S       -2.42144        -0.17412        -0.02681
   C       -1.26332         1.12654        -0.03604
   C       -1.69385         2.55368        -0.00055
   C       -1.78145         3.07767         1.43553
   C       -0.00864         0.59134        -0.00801
   C        0.03642        -0.84627         0.00312
   C        1.42011        -1.20425         0.01802
   C        2.12310        -0.04308         0.01442
   N        1.28336         1.04720         0.00120
   H       -1.50534        -2.43047         0.00136
   H       -2.67079         2.64852        -0.47752
   H       -0.97926         3.15850        -0.56634
   H       -2.52120         2.51078         1.99588
   H       -2.06963         4.12633         1.44000
   H       -0.82109         2.97715         1.93698
   H        1.82273        -2.19672         0.02846
   H        3.18763         0.10021         0.02261
   H        1.57437         2.00772        -0.00779
*
