11
 SCF done        -13.714378101651          0.000344444133
C           0.62538824363952    1.01170556497233   -0.00351488879573
C           1.18692834080213   -0.20385307064575    0.00397278007002
C           0.11706334056570   -1.24532998672538    0.00893792201012
C          -1.13307525785215   -0.42898599339604    0.00432008940581
C          -0.81575653179290    0.87182983122292   -0.00412780763026
H           1.13531204692798    1.95874484762982   -0.00936050361480
H           2.23486906436906   -0.44178955473621    0.00577098690666
H           0.17952574485222   -1.88768362193577    0.89026699372424
H           0.18016730318184   -1.89705124728100   -0.86550983433435
H          -2.11572322407370   -0.86396040459242    0.00677438206841
H          -1.49827907061971    1.70312363548751   -0.01012011981013
