# ORCA input file
# SCF done        -36.966967372313          0.000854847984
! B3LYP/G D3BJ Opt RIJCOSX def2-SVP def2/J
* xyz 0 1
   C       -1.73468         1.24052        -0.22066
   S       -2.90613         0.00291        -0.14322
   C       -1.69933        -1.21004         0.16134
   C       -0.44039        -0.63905         0.18930
   C       -0.47072         0.75929        -0.02602
   S        0.88935         1.87975        -0.01401
   C        2.38700         0.94934         0.01825
   O        3.41634         1.56548         0.01599
   C        2.43108        -0.56507         0.06689
   O        3.48670        -1.12484        -0.04430
   S        1.02653        -1.58841         0.39735
   C       -2.15532        -2.56599         0.32507
   C       -1.44280        -3.61378         0.73032
   H       -2.01677         2.25795        -0.39903
   H       -3.20602        -2.69390         0.09615
   H       -0.40352        -3.54941         0.99594
   H       -1.89927        -4.58445         0.81205
*
