17
 SCF done        -36.966967372313          0.000854847984
C          -1.73468347107920    1.24052360399830   -0.22065952187770
S          -2.90612994369872    0.00291067921174   -0.14321769295223
C          -1.69933220314257   -1.21003685724266    0.16133542938323
C          -0.44038967831317   -0.63905025789745    0.18929784412548
C          -0.47072379129425    0.75928529211474   -0.02601749864875
S           0.88935008278183    1.87974667839771   -0.01400696783159
C           2.38699839349879    0.94933653089185    0.01824997491776
O           3.41633552701694    1.56547527475535    0.01598801001645
C           2.43107710952579   -0.56507397830938    0.06689445028143
O           3.48669634378559   -1.12483643038210   -0.04429889985824
S           1.02652618627081   -1.58840544613901    0.39735244013620
C          -2.15532154662920   -2.56599407078547    0.32506627641176
C          -1.44279929950704   -3.61377825046076    0.73032292889350
H          -2.01676887723429    2.25794515906851   -0.39902850449252
H          -3.20601669212290   -2.69389822013116    0.09614546509816
H          -0.40352189664546   -3.54940552383962    0.99594308018484
H          -1.89926624321307   -4.58445418325066    0.81205318621192
