# ORCA input file
# SCF done        -28.883061768481          0.000603036636
! B3LYP/G D3BJ Opt RIJCOSX def2-SVP def2/J
* xyz 0 1
   C        1.61996        -1.50409         0.00265
   S        3.20601        -0.83292         0.00498
   C        2.60439         0.78238         0.00646
   C        1.24816         0.78337         0.00523
   C        0.66736        -0.53119         0.00304
   C       -0.76219        -0.46042         0.00190
   C       -1.19616         0.85270         0.00321
   S        0.05581         2.06990         0.00582
   S       -2.90949         0.99119         0.00207
   C       -3.04317        -0.73787        -0.00027
   C       -1.84523        -1.37162        -0.00007
   H        1.49452        -2.56745         0.00117
   H        3.28412         1.60918         0.00815
   H       -4.02294        -1.17217        -0.00160
   H       -1.72849        -2.43981        -0.00130
*
