17
 SCF done        -25.643082165594          0.000552588215
C          -2.18386094389804    0.40361614300973   -0.17693763128989
C          -1.74670691408561   -0.86087469834926   -0.30251997673270
C          -0.33999648480731   -0.86782740624947    0.10257212618184
C           0.77906009355647   -1.58324329054637    0.27535609948704
C           1.79738238924411   -0.59244632458134    0.77045794866375
N           1.31407279709929    0.60741644369573    0.87595936041599
C          -0.00928251224120    0.51480772279043    0.47559263419359
C          -1.10248446483497    1.28467876437369    0.30969020611638
C           3.15174483681765   -0.95615980139184    1.08934390927096
C           4.05603541534176   -0.08484952525589    1.53613137040273
H          -3.17414713998566    0.76459749284972   -0.39072417057707
H          -2.30078820775058   -1.71947503423652   -0.63192184323012
H           0.97913253030202   -2.62674913238658    0.11773388635950
H          -1.21708390500330    2.33857879467691    0.48371651257762
H           3.40612765819451   -1.99881386787168    0.94665681423287
H           3.78859600841106    0.94892072613965    1.67186554993733
H           5.06454884363971   -0.37820700666691    1.77162720399024
