15
 SCF done        -20.158568681182          0.000726454158
C           0.48116335181465   -1.21530605682478   -0.01968773731907
S           1.69060967623016    0.00725386030080   -0.02816154825155
C           0.47889640402205    1.22805917083906   -0.00684885132352
C          -0.78070794940443    0.71933005038472    0.00660046148889
C          -0.78025071915472   -0.70946106453576   -0.00059389718986
C          -2.01020672728714   -1.56099535813014    0.01585307303534
C          -2.01582163721861    1.55937485590331    0.02708650659806
H           0.77763035520674   -2.24563641841844   -0.02955817693373
H           0.77459612158895    2.25854394727298   -0.00541407870181
H          -2.90559842522075   -0.94869081121978   -0.02712457325455
H          -2.04362481770214   -2.16104802763495    0.92470430984659
H          -2.01209957836967   -2.24219244971025   -0.83397153788996
H          -1.75387503080218    2.61417867280895    0.00932134888108
H          -2.59782101366143    1.36081759044196    0.92680714581013
H          -2.64024001004149    1.34192203852233   -0.83903244479604
