# ORCA input file
# SCF done        -20.158568681182          0.000726454158
! B3LYP/G D3BJ Opt RIJCOSX def2-SVP def2/J
* xyz 0 1
   C        0.48116        -1.21531        -0.01969
   S        1.69061         0.00725        -0.02816
   C        0.47890         1.22806        -0.00685
   C       -0.78071         0.71933         0.00660
   C       -0.78025        -0.70946        -0.00059
   C       -2.01021        -1.56100         0.01585
   C       -2.01582         1.55937         0.02709
   H        0.77763        -2.24564        -0.02956
   H        0.77460         2.25854        -0.00541
   H       -2.90560        -0.94869        -0.02712
   H       -2.04362        -2.16105         0.92470
   H       -2.01210        -2.24219        -0.83397
   H       -1.75388         2.61418         0.00932
   H       -2.59782         1.36082         0.92681
   H       -2.64024         1.34192        -0.83903
*
