# ORCA input file
# SCF done        -30.183649236637          0.000649047142
! B3LYP/G D3BJ Opt RIJCOSX def2-SVP def2/J
* xyz 0 1
   C        1.14635         0.09362        -0.08996
   N        0.43026         0.49678        -0.96111
   N        2.47018         0.01376         0.17370
   C        3.01740        -0.35125         1.27449
   C        2.26579        -0.74528         2.46778
   C        2.53513        -0.32355         3.72221
   S        1.31882        -0.50601         4.92178
   C        0.35568        -1.55465         3.93700
   S        0.70248        -1.54281         2.25357
   C        4.47150        -0.28536         1.32878
   C        5.22987        -0.94518         2.19772
   H        0.50922        -0.39716         0.86386
   H        3.41475         0.23219         3.99223
   H       -0.66331        -1.70792         4.24369
   H        4.91264         0.29920         0.53401
   H        4.81354        -1.57962         2.96302
   H        6.30356        -0.88716         2.15643
*
