10
 SCF done        -21.135609803986          0.000271259997
N          -0.00172394593242    0.86739381427334   -0.01370320535893
C          -1.15052945770787    0.09687347483412   -0.00415986990540
O          -2.27624218756309    0.51274792873639   -0.00206476670122
C          -0.66476728122124   -1.31585354839786    0.00194601385269
C           0.66518735726386   -1.31470045449512   -0.00174996073520
C           1.14845596143883    0.09886258174802   -0.01148307951120
O           2.27343936812033    0.51669110672872   -0.01596351082853
H          -0.00259826036848    1.87626397119330   -0.01797499065305
H          -1.34200134259682   -2.14932406194565    0.00844147864181
H           1.34388978856689   -2.14699481267527    0.00109189119902
