# ORCA input file
# SCF done        -21.135609803986          0.000271259997
! B3LYP/G D3BJ Opt RIJCOSX def2-SVP def2/J
* xyz 0 1
   N       -0.00172         0.86739        -0.01370
   C       -1.15053         0.09687        -0.00416
   O       -2.27624         0.51275        -0.00206
   C       -0.66477        -1.31585         0.00195
   C        0.66519        -1.31470        -0.00175
   C        1.14846         0.09886        -0.01148
   O        2.27344         0.51669        -0.01596
   H       -0.00260         1.87626        -0.01797
   H       -1.34200        -2.14932         0.00844
   H        1.34389        -2.14699         0.00109
*
