# ORCA input file
# SCF done        -43.005886775931          0.000446409870
! B3LYP/G D3BJ Opt RIJCOSX def2-SVP def2/J
* xyz 0 1
   C       -0.46568         1.16056         0.11363
   O       -1.19710         0.05947         0.08332
   C       -0.35687        -1.00299         0.04701
   C        0.95893        -0.55920         0.05370
   C        0.87809         0.86667         0.09772
   C        1.92437         1.92144         0.12741
   F        1.37728         3.14594         0.16673
   F        2.73847         1.84686         1.19883
   F        2.73379         1.91336        -0.94959
   O        1.98695        -1.42500         0.01911
   C        3.31566        -0.94107         0.04171
   C       -0.84770        -2.35430         0.01105
   C       -2.13526        -2.68706         0.01006
   H       -0.96527         2.10870         0.14459
   H        3.94263        -1.83049         0.01366
   H        3.52567        -0.38366         0.95725
   H        3.53354        -0.32174        -0.83134
   H       -0.06575        -3.09871        -0.01487
   H       -2.90786        -1.93767         0.03497
   H       -2.44954        -3.71475        -0.01587
*
