20
 SCF done        -43.005886775931          0.000446409870
C          -0.46567610704581    1.16055886809777    0.11363223300941
O          -1.19709710018594    0.05946902412608    0.08331756728953
C          -0.35686659276615   -1.00299218839794    0.04700603313607
C           0.95892951093907   -0.55919984911944    0.05370031421530
C           0.87808688262665    0.86667027087908    0.09772190263510
C           1.92437021230831    1.92143689141547    0.12740966414327
F           1.37728171963090    3.14594096859944    0.16673095760222
F           2.73847124426973    1.84685977661242    1.19883043260211
F           2.73379251998566    1.91335911514503   -0.94959376010970
O           1.98695201277847   -1.42499683349435    0.01911493444491
C           3.31565688424054   -0.94107305476563    0.04171122738315
C          -0.84770426773564   -2.35430458414739    0.01104973659361
C          -2.13525852713040   -2.68705669970512    0.01005902552615
H          -0.96526818162736    2.10869557636111    0.14459185433434
H           3.94262863512496   -1.83049236830544    0.01365523698378
H           3.52566819992286   -0.38365850463237    0.95724586595434
H           3.53354242484517   -0.32174419823361   -0.83134051363900
H          -0.06575212580033   -3.09871499806577   -0.01487190544905
H          -2.90786432484899   -1.93767164262612    0.03496541131857
H          -2.44954301953166   -3.71474556974322   -0.01586621797407
