# ORCA input file
# SCF done        -33.830035900980          0.000310378790
! B3LYP/G D3BJ Opt RIJCOSX def2-SVP def2/J
* xyz 0 1
   C        0.66873         1.24273        -0.03229
   C        1.26206        -0.00678        -0.05068
   C        2.75279        -0.16570        -0.07526
   C        0.43740        -1.12172        -0.06055
   C       -0.94689        -1.01403        -0.03701
   C       -1.74758        -2.29050        -0.02477
   C       -2.02483        -2.74697         1.40896
   C       -1.53759         0.24919         0.00730
   C       -3.02762         0.43513         0.08647
   C       -0.71539         1.38485        -0.00792
   C       -1.29760         2.72942        -0.01961
   C       -0.78721         3.77631         0.61284
   H        1.28595         2.12901        -0.05786
   H        3.24788         0.80026        -0.01578
   H        3.06678        -0.66015        -0.99407
   H        3.08334        -0.77926         0.76197
   H        0.88563        -2.10559        -0.09086
   H       -1.17754        -3.06900        -0.53679
   H       -2.68739        -2.16734        -0.56431
   H       -1.08778        -2.91423         1.93537
   H       -2.59456        -3.67389         1.41145
   H       -2.58692        -1.99210         1.95403
   H       -3.53779        -0.47969         0.36684
   H       -3.42063         0.76133        -0.87801
   H       -3.27137         1.19759         0.82449
   H       -2.20540         2.84902        -0.59698
   H        0.09651         3.69883         1.22418
   H       -1.24370         4.75024         0.55807
*
