28
 SCF done        -33.830035900980          0.000310378790
C           0.66872722118382    1.24272904393401   -0.03228958211126
C           1.26206258216043   -0.00678119563425   -0.05067691098211
C           2.75278826248169   -0.16570466146166   -0.07526103150943
C           0.43739759990660   -1.12172136082685   -0.06054976732494
C          -0.94689326705143   -1.01403443702755   -0.03701248017793
C          -1.74758302593367   -2.29050382020080   -0.02476851376882
C          -2.02482783455408   -2.74696680049857    1.40896414203808
C          -1.53759014492826    0.24918500282479    0.00729501482053
C          -3.02762125774326    0.43513342931819    0.08647464254660
C          -0.71539260447635    1.38484717745252   -0.00792217176640
C          -1.29759709715811    2.72942185042565   -0.01961471685640
C          -0.78720911048139    3.77631404155990    0.61284221030665
H           1.28595063680898    2.12900935072826   -0.05785988842007
H           3.24787510533117    0.80025815794894   -0.01578239777107
H           3.06678019842355   -0.66014911510902   -0.99407479357017
H           3.08333604265436   -0.77925871885766    0.76197189793001
H           0.88563232149296   -2.10559399712375   -0.09086096389705
H          -1.17754129340625   -3.06899784294559   -0.53678596022662
H          -2.68739070401670   -2.16733525351284   -0.56430966767785
H          -1.08777743104058   -2.91422939518641    1.93536954099673
H          -2.59456160288980   -3.67388926924097    1.41145469968537
H          -2.58691802702500   -1.99209951038526    1.95403184737303
H          -3.53778673590188   -0.47968955087002    0.36683809453226
H          -3.42062618646535    0.76132700159158   -0.87801201800285
H          -3.27137173018723    1.19759099815466    0.82449086193710
H          -2.20540008054291    2.84902212564344   -0.59697945673228
H           0.09651133426698    3.69882677320963    1.22418473200429
H          -1.24370317090826    4.75023997608965    0.55807263662461
