19
 SCF done        -25.479173222389          0.000220373853
C           1.56860424543558    1.22710022154185    0.05281527638081
S           2.77383486415174    0.00172761839409   -0.03222033703440
C           1.56110110085076   -1.21848219254051   -0.07851408315328
C           0.30486273041979   -0.70431404502796   -0.03153808386856
C           0.30945882231790    0.71824917646124    0.04674287664693
C          -0.95215834692216    1.51776560401986    0.14750845439933
C          -2.14810302365913    0.69263144002647   -0.32322483972931
C          -2.15205234761885   -0.66610586414185    0.37163222269888
C          -0.96158308693941   -1.50047437805753   -0.09773470497105
H           1.86779515589019    2.25520569059697    0.10491225174527
H           1.85419619541068   -2.24769928848062   -0.14170139633678
H          -0.86258636080967    2.43699277953212   -0.43586697604977
H          -1.10327829322455    1.80787216697279    1.19301868945587
H          -2.08978136786379    0.54526094604531   -1.40403164476973
H          -3.07221271759451    1.23133798455901   -0.10557785776218
H          -3.07935036335335   -1.19968384139227    0.15424514743333
H          -2.09402146160194   -0.51773919595634    1.45239200511868
H          -1.12594495709342   -1.81225265417050   -1.13473686688054
H          -0.86674078779581   -2.40771216838212    0.50318986667648
