26
 SCF done        -43.861415061937          0.000583249029
C          -2.40342887232044   -0.62388999181516   -0.31472279145685
C          -2.63024159736367    0.87917632080306   -0.40595389294590
O          -3.56895455841517    1.44346115225011   -0.87881699527721
O          -1.58694788718041    1.52314039475544    0.14751026365480
C          -0.56437829935025    0.61359680268712    0.53522976169138
C          -1.29668751440653   -0.72701593595681    0.73175373200523
C          -0.39681306360157   -1.95406283938892    0.65639102975627
C           0.48625418589536   -1.95549830398081   -0.58407024391670
C           1.33072242546298   -0.69291492891809   -0.70174191885098
C           0.53929408448301    0.61966007881503   -0.55051491634430
O           1.52005976210058    1.58649275128234   -0.19471041925124
C           2.59018512560133    1.00882764639372    0.38033174771113
O           3.50220851835561    1.63011339089599    0.83352462683307
C           2.43092984374462   -0.50509635752850    0.33986502141865
H          -2.08647275800700   -0.98475475038540   -1.29442033281397
H          -3.32366843039351   -1.13518067112025   -0.04158601778086
H          -0.13101592426404    0.99600618115208    1.46443200425927
H          -1.76506306192641   -0.70176058603671    1.72223014152184
H          -1.02038031017109   -2.84933047989983    0.66099303144306
H           0.22555314105333   -1.98664843592730    1.55239217181524
H          -0.13337427429417   -2.04614495650836   -1.47797353025879
H           1.14902995098743   -2.82178008689124   -0.55873822119153
H           1.79834611688050   -0.68058741377096   -1.69282421103381
H           0.09010261641972    0.95052733566283   -1.49189123601910
H           2.12983200576178   -0.84665505488054    1.33140153088900
H           3.37334877494799   -0.98355126168883    0.08331966414228
