20
 SCF done        -33.206521959387          0.000705493265
C          -1.56340183529468    1.24084386903782   -0.06312509077681
S          -2.70650322086721   -0.02111270033182   -0.11432730228629
C          -1.49091555291702   -1.25122190066257   -0.03370098975084
C          -0.22017152587173   -0.67870943564412   -0.00480064083374
C          -0.27736460537172    0.75850308037233   -0.00971446377454
C           0.93548025340541    1.50988215868542    0.03123773048693
C           0.87776849958898    2.91824327671576    0.05002120283612
N           0.82697709853544    4.06447360918891    0.06873303733323
C           2.13804376533472    0.84720734208126    0.04417234500549
C           2.18365815515704   -0.55903749781935   -0.00742079225087
C           1.04340039357366   -1.31054634074996   -0.03523208131475
C          -1.92031005294063   -2.62344187893052    0.01540863084222
C          -1.25641695548501   -3.64151655928904    0.55963011108787
H          -1.88241272025859    2.26410000025592   -0.07039888123277
H           3.05871663138901    1.41087312397991    0.07564851494517
H           3.14826731606850   -1.04315110406899   -0.03246791740530
H           1.10028309363032   -2.38458505846103   -0.10734540614663
H          -2.90658715513001   -2.79719224589698   -0.39789627317337
H          -0.30505719404931   -3.52068994291632    1.04658837722802
H          -1.66983438849719   -4.63490179554662    0.55603988918088
