15
 SCF done        -23.864028888960          0.000554481732
C          -1.55689857503065   -1.16540521076228    0.01550713122308
C          -2.36349317588956    0.00345132119765    0.04155623400361
C          -1.58341616360415    1.13531060315076    0.03904707783258
C          -0.23459118887907    0.72455698004298    0.00845052292676
C          -0.25810234755950   -0.74794556990245   -0.00506180755241
N           0.94408720148807   -1.38873705133641   -0.03421387902314
C           2.08187542376538   -0.66876042332226   -0.04893057594710
N           2.13882189777583    0.62882947555631   -0.03750867331075
C           0.99138148508332    1.33379869781049   -0.00917259502087
H          -1.91630056196667   -2.17733235814288    0.01240230890871
H          -3.43889572447489   -0.01261175976138    0.06148981100880
H          -1.92507941113464    2.15211556308253    0.05636182816807
H           0.96907108785060   -2.40093799062811   -0.04463143143245
H           3.01326717336942   -1.21634114010206   -0.07224237880804
H           1.11297287920652    2.40856886311712   -0.00010357297685
