# ORCA input file
# SCF done        -23.864028888960          0.000554481732
! B3LYP/G D3BJ Opt RIJCOSX def2-SVP def2/J
* xyz 0 1
   C       -1.55690        -1.16541         0.01551
   C       -2.36349         0.00345         0.04156
   C       -1.58342         1.13531         0.03905
   C       -0.23459         0.72456         0.00845
   C       -0.25810        -0.74795        -0.00506
   N        0.94409        -1.38874        -0.03421
   C        2.08188        -0.66876        -0.04893
   N        2.13882         0.62883        -0.03751
   C        0.99138         1.33380        -0.00917
   H       -1.91630        -2.17733         0.01240
   H       -3.43890        -0.01261         0.06149
   H       -1.92508         2.15212         0.05636
   H        0.96907        -2.40094        -0.04463
   H        3.01327        -1.21634        -0.07224
   H        1.11297         2.40857        -0.00010
*
