24
 SCF done        -43.385502159501          0.000892301895
C           0.92907214597475    1.54764464755253    0.18001361030469
S           2.39663029094880    0.66368389632324    0.09651567902878
C           1.59335274798692   -0.87243399931309   -0.05600099131614
C           0.21682044015998   -0.67934339187621   -0.03577488599424
C          -0.13530601332510    0.70535401622015    0.09774735541624
S          -1.85183423269255    0.97749323145628    0.13105269214753
C          -2.13110137089744   -0.74868583306213   -0.01730564768897
C          -3.53695109548897   -1.16580694175439   -0.03186695045110
O          -4.41212370164097   -0.33064050994630    0.02775726253100
C          -3.80320373012779   -2.65090909583465   -0.11452597834380
C          -5.29376963773009   -2.95568039356630   -0.08345950424083
C          -0.96716065992638   -1.46290026146323   -0.09317919347693
F          -0.96010413843421   -2.79857864892211   -0.20965221089402
C           2.44080529381935   -2.02566718022637   -0.17539421529207
C           2.07640988200117   -3.28979225946587   -0.38179282002353
H           0.93823125327770    2.61267768369201    0.28310752700250
H          -3.29357166631111   -3.14060437825782    0.71909933570856
H          -3.35269219502861   -3.03058871016090   -1.03516393824472
H          -5.73568293345877   -2.57443241971823    0.83359402676208
H          -5.46188639889554   -4.02809196577789   -0.13774008050261
H          -5.79317390051191   -2.47624269541556   -0.92138630133170
H           3.49392275415079   -1.78823018969731   -0.09293594263384
H           1.05526315513166   -3.59981774789719   -0.48699120043738
H           2.81949371101869   -4.06402685288818   -0.45815762802954
