# ORCA input file
# SCF done        -44.637008979777          0.000447930534
! B3LYP/G D3BJ Opt RIJCOSX def2-SVP def2/J
* xyz 0 1
   C        1.34986        -1.27226         0.22723
   S        2.58062        -0.10389         0.00942
   C        1.40518         1.16169        -0.21861
   C        0.12777         0.66225        -0.10680
   C        0.10204        -0.73283         0.14792
   C       -1.16241        -1.51268         0.33767
   C       -2.36640        -0.77478        -0.24968
   N       -2.35172        -0.89644        -1.68120
   C       -2.35621         0.70526         0.25516
   N       -2.43367         0.66420         1.72766
   O       -3.47273         0.24781         2.19145
   O       -1.47542         1.01599         2.37133
   C       -1.12860         1.47215        -0.21896
   C        1.91237         2.48673        -0.46655
   C        1.24761         3.55319        -0.90365
   H        1.61126        -2.29558         0.40897
   H       -1.32235        -1.68966         1.40527
   H       -1.07925        -2.48634        -0.14746
   H       -3.29234        -1.23737         0.11409
   H       -1.47796        -0.56821        -2.07411
   H       -3.12472        -0.41133        -2.11866
   H       -3.27787         1.19106        -0.08452
   H       -1.02043         2.38415         0.37452
   H       -1.28726         1.76969        -1.26075
   H        2.97494         2.58177        -0.27884
   H        0.20215         3.54508        -1.14895
   H        1.75686         4.49080        -1.04439
*
