20
 SCF done        -34.358744032692          0.000475778661
C          -0.51194721292528    0.96678806767199    0.75097416755403
S          -1.39410986336017   -0.45079874125352    1.28726743311677
C          -0.26876876820294   -1.39000361666528    0.39424753215201
C           0.66470209629656   -0.56416735398632   -0.22391495714430
N           0.50471017037787    0.75008575887756   -0.00680759628502
C           1.65335368422542   -1.36669604550978   -1.00905054405643
C           1.15432412712193   -2.76016042833655   -0.75734243447789
C           0.03263424795053   -2.73737249917214    0.06651585110072
S          -0.57703747009844   -4.30711358069066    0.38259140008928
C           0.68584605002785   -5.01269249313489   -0.60544920380454
C           1.52062495184011   -4.05201476763083   -1.13543506234164
C           0.71710184028894   -6.44086916418106   -0.75588593453259
C           1.59656757977491   -7.12122937987536   -1.48885820807479
H          -0.83061391489894    1.94217241047326    1.05699211389859
H           2.67235941208306   -1.22071270496527   -0.64630425209393
H           1.63722486821748   -1.10608790878047   -2.06870453324028
H           2.35737319160155   -4.28508888655524   -1.76766993609283
H          -0.05533415581963   -6.97277194469206   -0.21557158347320
H           2.37964728956756   -6.63541424146579   -2.04411412896331
H           1.55581187593165   -8.19378248012756   -1.55466012333064
