# ORCA input file
# SCF done        -34.358744032692          0.000475778661
! B3LYP/G D3BJ Opt RIJCOSX def2-SVP def2/J
* xyz 0 1
   C       -0.51195         0.96679         0.75097
   S       -1.39411        -0.45080         1.28727
   C       -0.26877        -1.39000         0.39425
   C        0.66470        -0.56417        -0.22391
   N        0.50471         0.75009        -0.00681
   C        1.65335        -1.36670        -1.00905
   C        1.15432        -2.76016        -0.75734
   C        0.03263        -2.73737         0.06652
   S       -0.57704        -4.30711         0.38259
   C        0.68585        -5.01269        -0.60545
   C        1.52062        -4.05201        -1.13544
   C        0.71710        -6.44087        -0.75589
   C        1.59657        -7.12123        -1.48886
   H       -0.83061         1.94217         1.05699
   H        2.67236        -1.22071        -0.64630
   H        1.63722        -1.10609        -2.06870
   H        2.35737        -4.28509        -1.76767
   H       -0.05533        -6.97277        -0.21557
   H        2.37965        -6.63541        -2.04411
   H        1.55581        -8.19378        -1.55466
*
