14
 SCF done        -31.802762440985          0.000321933097
C          -1.37018386092421   -1.22092320754307    0.11411964321736
S          -2.46680109963141    0.10056978366274   -0.02534583937185
C          -1.20713578192095    1.25099083177756   -0.13298709791084
C           0.02466105818641    0.64995837120915   -0.06441466108751
C          -0.08657124972695   -0.77855365088912    0.07845172374063
S           1.46654817686210   -1.56020321893938    0.16704314386530
C           2.22146894947603    0.01300963683039    0.01337459816476
N           3.63174001431084    0.04389770331432    0.01727001007567
O           4.17171324876003    1.12648678591806   -0.08909379080256
O           4.20158250548791   -1.02381358779294    0.12720338369698
C           1.37607226128079    1.07475241865491   -0.09876329663650
H          -1.74103081381131   -2.21999403250199    0.21177701104623
H          -1.43549746175806    2.29184295321753   -0.23894612232195
H           1.70905405340878    2.09137921308183   -0.19914870567572
