# ORCA input file
# SCF done        -31.802762440985          0.000321933097
! B3LYP/G D3BJ Opt RIJCOSX def2-SVP def2/J
* xyz 0 1
   C       -1.37018        -1.22092         0.11412
   S       -2.46680         0.10057        -0.02535
   C       -1.20714         1.25099        -0.13299
   C        0.02466         0.64996        -0.06441
   C       -0.08657        -0.77855         0.07845
   S        1.46655        -1.56020         0.16704
   C        2.22147         0.01301         0.01337
   N        3.63174         0.04390         0.01727
   O        4.17171         1.12649        -0.08909
   O        4.20158        -1.02381         0.12720
   C        1.37607         1.07475        -0.09876
   H       -1.74103        -2.21999         0.21178
   H       -1.43550         2.29184        -0.23895
   H        1.70905         2.09138        -0.19915
*
