# ORCA input file
# SCF done        -30.654625855896          0.000555881104
! B3LYP/G D3BJ Opt RIJCOSX def2-SVP def2/J
* xyz 0 1
   C        1.20050        -1.27620         0.20454
   S        2.50766        -0.15163         0.17738
   C        1.42384         1.18913         0.04082
   C        0.14290         0.76845         0.01483
   C       -0.00393        -0.64774         0.12133
   C       -1.39574        -1.06692         0.02839
   C       -2.22090        -0.02320        -0.16295
   S       -1.45288         1.62378        -0.10922
   O       -1.55198         2.21281        -1.44712
   C       -1.86204        -2.44324         0.10785
   C       -1.25090        -3.42101         0.76370
   H        1.42410        -2.32163         0.26623
   H        1.81327         2.18456        -0.02638
   H       -3.28781        -0.08128        -0.28150
   H       -2.80982        -2.62933        -0.38080
   H       -0.33295        -3.26469         1.30327
   H       -1.66660        -4.41315         0.80271
*
