17
 SCF done        -30.654625855896          0.000555881104
C           1.20050430889745   -1.27620296186611    0.20454279509754
S           2.50765766830676   -0.15162922883424    0.17737666512851
C           1.42383904520274    1.18912512075520    0.04082179964633
C           0.14289724537641    0.76844523004558    0.01482687214521
C          -0.00393094819595   -0.64774212668802    0.12132932445879
C          -1.39573676283665   -1.06692285819982    0.02838779131597
C          -2.22089751640734   -0.02320141700032   -0.16295297875416
S          -1.45287636958817    1.62378187408808   -0.10921909063846
O          -1.55197928288942    2.21280625884189   -1.44712419641653
C          -1.86204318727819   -2.44324011207582    0.10784878357775
C          -1.25090070249150   -3.42100926203337    0.76370185518744
H           1.42410462214357   -2.32163352073092    0.26623401026774
H           1.81326675288409    2.18456248160212   -0.02637678649177
H          -3.28781466006800   -0.08128338700293   -0.28149725280841
H          -2.80982321802109   -2.62933045069393   -0.38079554642044
H          -0.33294681851128   -3.26469228483488    1.30327163507489
H          -1.66660017652344   -4.41315335537252    0.80271431962961
