# ORCA input file
# SCF done        -51.665503028563          0.000989447718
! B3LYP/G D3BJ Opt RIJCOSX def2-SVP def2/J
* xyz 0 1
   C        1.34238        -1.35904         0.34150
   S        2.60198        -0.21387         0.17683
   C        1.46491         1.06245        -0.15187
   C        0.17439         0.58578        -0.11217
   C        0.11106        -0.80216         0.16873
   C       -1.17185        -1.56641         0.29634
   C       -2.36553        -0.76965        -0.22312
   N       -2.45702        -0.87590        -1.71381
   O       -2.21392        -1.94844        -2.19823
   O       -2.80321         0.10713        -2.32120
   C       -2.31260         0.69995         0.18521
   N       -2.41715         0.81252         1.67429
   O       -2.09327         1.86118         2.16512
   O       -2.85501        -0.13833         2.27369
   C       -1.05683         1.41280        -0.31473
   C        1.99742         2.38050        -0.38920
   C        1.38057         3.41703        -0.95021
   H        1.57299        -2.38282         0.55759
   H       -1.34846        -1.81482         1.34675
   H       -1.10530        -2.50790        -0.25429
   H       -3.28814        -1.22989         0.15437
   H       -3.19244         1.22763        -0.20610
   H       -0.95622         2.36309         0.21621
   H       -1.19055         1.63472        -1.37754
   H        3.02998         2.49124        -0.08114
   H        0.37606         3.37710        -1.32696
   H        1.89425         4.35477        -1.07163
*
