# ORCA input file
# SCF done        -24.984040153590          0.000604489828
! B3LYP/G D3BJ Opt RIJCOSX def2-SVP def2/J
* xyz 0 1
   C       -2.18081         0.55466         0.06770
   C       -2.12247        -0.76672         0.06446
   C       -0.86761        -1.57581        -0.06907
   C        0.33685        -0.70580        -0.06000
   C        0.27430         0.71129        -0.05653
   C       -1.00214         1.47182        -0.06160
   N        1.46350         1.27004        -0.04178
   S        2.59771         0.10388        -0.03556
   N        1.57067        -1.15765        -0.04774
   H       -3.13590         1.05256         0.16214
   H       -3.02997        -1.34730         0.15624
   H       -0.89647        -2.15252        -1.00119
   H       -0.79995        -2.30736         0.74264
   H       -1.08189         2.04832        -0.99090
   H       -0.99903         2.20251         0.75369
*
