15
 SCF done        -24.984040153590          0.000604489828
C          -2.18080563049800    0.55466427725752    0.06769915101866
C          -2.12247234178842   -0.76671583782565    0.06446223412972
C          -0.86761323119091   -1.57580569015143   -0.06906925757445
C           0.33685446900925   -0.70579720060595   -0.06000083638501
C           0.27430312325786    0.71129342175927   -0.05652864651849
C          -1.00214315475549    1.47182289288273   -0.06160424889541
N           1.46350196628448    1.27003874631563   -0.04178169240941
S           2.59770721555642    0.10387601891853   -0.03556417201806
N           1.57066604036326   -1.15764966988708   -0.04774199232611
H          -3.13589607318158    1.05256349159551    0.16214440503002
H          -3.02996512057564   -1.34729514274819    0.15623577120057
H          -0.89646750205621   -2.15251862220846   -1.00119137870747
H          -0.79995063296300   -2.30735614646964    0.74264195431165
H          -1.08189116741386    2.04831836099554   -0.99089996359216
H          -0.99902796004815    2.20251110017165    0.75368867273594
