12
 SCF done        -17.340930375294          0.000368177863
C           1.11849897348065    0.54179003066063    0.44260314084534
C          -0.01130609716712   -0.16630356028890    0.47483149622129
N           2.32631701498359   -0.10923418628671    0.46854796136529
N           3.34136981619055    0.65722375261192    0.42174799381117
C           4.54931806032822    0.00659217253436    0.45004020071426
C           5.67869267681211    0.71404222762617    0.39578499844952
H           1.12441799191660    1.63044829859524    0.39567795805526
H           0.02060433563318   -1.24136258460112    0.52021953397732
H          -0.97732648874360    0.30582012293452    0.45570705347690
H           4.54389834625163   -1.08103122809574    0.51668146402866
H           5.64602603784553    1.78801229820159    0.32964978722880
H           6.64497933246866    0.24247265610805    0.41507841182618
