# ORCA input file
# SCF done        -17.340930375294          0.000368177863
! B3LYP/G D3BJ Opt RIJCOSX def2-SVP def2/J
* xyz 0 1
   C        1.11850         0.54179         0.44260
   C       -0.01131        -0.16630         0.47483
   N        2.32632        -0.10923         0.46855
   N        3.34137         0.65722         0.42175
   C        4.54932         0.00659         0.45004
   C        5.67869         0.71404         0.39578
   H        1.12442         1.63045         0.39568
   H        0.02060        -1.24136         0.52022
   H       -0.97733         0.30582         0.45571
   H        4.54390        -1.08103         0.51668
   H        5.64603         1.78801         0.32965
   H        6.64498         0.24247         0.41508
*
