# ORCA input file
# SCF done        -38.065850459801          0.000542970826
! B3LYP/G D3BJ Opt RIJCOSX def2-SVP def2/J
* xyz 0 1
   C        1.36509        -1.32411         0.09863
   S        2.60480        -0.14401         0.14483
   C        1.43632         1.15028         0.10293
   C        0.15413         0.65089         0.07220
   C        0.12136        -0.76990         0.06874
   C       -1.14975        -1.56452         0.06275
   C       -2.34175        -0.70324        -0.33871
   S       -2.40134        -0.45357        -2.15182
   C       -2.33570         0.64122         0.40826
   O       -2.43946         0.43387         1.79644
   C       -1.09846         1.47227         0.04766
   C        1.95199         2.49586         0.11168
   C        1.30384         3.61829        -0.18905
   H        1.61926        -2.36545         0.09816
   H       -1.33214        -1.97346         1.06316
   H       -1.05895        -2.41499        -0.61712
   H       -3.27390        -1.22729        -0.11394
   H       -1.11073        -0.15982        -2.29546
   H       -3.23791         1.20009         0.13658
   H       -1.59316         0.10290         2.11948
   H       -1.01982         2.29714         0.76047
   H       -1.24137         1.90365        -0.94728
   H        3.00130         2.55426         0.37451
   H        0.27548         3.64458        -0.49744
   H        1.81051         4.56679        -0.14705
*
