13
 SCF done        -23.726150539453          0.000375980893
C           1.33689833671526    0.39266033057244   -0.00427995096731
S           0.90796827986478   -1.25328794521069   -0.00598935359923
C          -0.77359451044861   -0.98180521911888   -0.00972627385144
C          -1.21511262527816    0.30193770368496   -0.00630895856903
S           0.05083607516975    1.54976158103514   -0.00139423391077
C          -2.55968582831821    0.85219054483313   -0.00725242678944
O          -2.70005555121376    2.06574965700079   -0.01571628190958
C          -3.73679231052530   -0.09171949004429    0.00145098203303
H           2.36001768825913    0.69715183956435    0.00289666147645
H          -1.40237561162049   -1.85281165517364   -0.01485969981383
H          -3.44374848533773   -1.13474747182271    0.02764519586200
H          -4.33922612289789    0.09539824235501   -0.88582188646574
H          -4.35625933436877    0.13470188232439    0.86754622650487
