# ORCA input file
# SCF done        -23.726150539453          0.000375980893
! B3LYP/G D3BJ Opt RIJCOSX def2-SVP def2/J
* xyz 0 2
   C        1.33690         0.39266        -0.00428
   S        0.90797        -1.25329        -0.00599
   C       -0.77359        -0.98181        -0.00973
   C       -1.21511         0.30194        -0.00631
   S        0.05084         1.54976        -0.00139
   C       -2.55969         0.85219        -0.00725
   O       -2.70006         2.06575        -0.01572
   C       -3.73679        -0.09172         0.00145
   H        2.36002         0.69715         0.00290
   H       -1.40238        -1.85281        -0.01486
   H       -3.44375        -1.13475         0.02765
   H       -4.33923         0.09540        -0.88582
   H       -4.35626         0.13470         0.86755
*
