24
 SCF done        -46.053599241321          0.000990649581
C          -2.59726345863790   -1.40588177291600   -0.02769580327001
C          -3.46292203577493   -0.15965934381710    0.12841984905195
O          -4.65199949255461   -0.09294731018749    0.18256699513355
O          -2.66162294262293    0.93640497914911    0.20445146327171
C          -1.34917240119829    0.55115121899079    0.12135010217733
C          -1.22087807685290   -0.83405628984378   -0.01690763353700
C           0.02232618432203   -1.43067621839534   -0.11465857479738
C           1.10702228587233   -0.57313549611725   -0.06594976993014
C           0.97767715989721    0.81038972245085    0.07411794637209
C          -0.26453312460859    1.40891062275906    0.16775165866502
C           2.35347781689458    1.39779428873943    0.06537753640122
C           3.22080925138239    0.13565020270660   -0.05605883749258
O           4.41012639972023    0.06841552509925   -0.08239659775043
O           2.42027585083369   -0.95917428321802   -0.14248884663229
C           2.60552314476148    2.31352089316264   -1.10046294961082
C           3.17455502459802    3.49793329255508   -0.99580277680160
H          -2.84775139594691   -1.91724845525987   -0.95902286965587
H          -2.78900762920971   -2.10105387949993    0.79145832239109
H           0.14805483618130   -2.49466391270368   -0.22244838049576
H          -0.38605897660064    2.47383690415236    0.27032955141852
H           2.60446767574539    1.91425617641091    0.99613030721145
H           2.28826485454721    1.92872024701078   -2.05940516712891
H           3.49777525269007    3.89422122743666   -0.04834444864165
H           3.34259379656163    4.11917166133495   -1.85801107634953
