# ORCA input file
# SCF done        -50.053317680811          0.000800942228
! B3LYP/G D3BJ Opt RIJCOSX def2-SVP def2/J
* xyz 0 1
   C       -1.01544         1.43218         0.08053
   S       -2.32698         0.40073        -0.30349
   C       -1.31954        -1.00976        -0.38697
   C       -0.00734        -0.66054        -0.12030
   C        0.16369         0.73850         0.14651
   N        1.39271         1.25999         0.43123
   C        2.38386         0.42588         0.44674
   O        3.63073         0.82247         0.69155
   C        3.82784         2.20898         0.94905
   C        3.40658         2.59638         2.35997
   C        2.20694        -1.00147         0.18109
   O        3.30108        -1.75557         0.23916
   C        3.11835        -3.14357        -0.01999
   C        4.45009        -3.84189         0.18553
   N        1.05002        -1.51902        -0.09514
   C       -1.81212        -2.32053        -0.68708
   C       -3.08427        -2.62499        -0.93425
   H       -1.17787         2.47921         0.23451
   H        3.26262         2.79289         0.21533
   H        4.89980         2.36360         0.80615
   H        2.33465         2.46082         2.47514
   H        3.65281         3.63898         2.53895
   H        3.92464         1.97826         3.08913
   H        2.75488        -3.26855        -1.04710
   H        2.35074        -3.53481         0.65793
   H        5.19953        -3.41769        -0.47685
   H        4.34518        -4.90199        -0.02584
   H        4.78425        -3.71421         1.21140
   H       -1.04027        -3.07837        -0.70056
   H       -3.85362        -1.87087        -0.92315
   H       -3.39197        -3.63106        -1.15586
*
