# ORCA input file
# SCF done        -14.713662181681          0.000515872293
! B3LYP/G D3BJ Opt RIJCOSX def2-SVP def2/J
* xyz 0 1
   C        1.23835        -0.06095         0.05155
   C        2.44400        -0.05157         0.05167
   C        3.79887        -0.03958         0.05385
   C        5.01113        -0.02814         0.05484
   C        6.41414        -0.02832         0.05478
   C        7.14817         1.07648         0.16067
   H        0.19018        -0.06946         0.05102
   H        6.87917        -1.00323        -0.03898
   H        6.69371         2.04888         0.25366
   H        8.22380         1.03928         0.15706
*
