# ORCA input file
# SCF done        -27.103793246305          0.000400237990
! B3LYP/G D3BJ Opt RIJCOSX def2-SVP def2/J
* xyz 0 1
   C       -1.45310         1.03587        -0.16357
   S       -2.36793        -0.43142        -0.11896
   C       -0.96467        -1.45096         0.06963
   C        0.15888        -0.65429         0.09336
   C       -0.13112         0.74477        -0.03912
   N        1.09325         1.36591         0.00578
   C        2.01757         0.36243         0.15491
   N        1.51797        -0.82863         0.21110
   C       -1.09517        -2.87456         0.17518
   C       -0.05316        -3.68840         0.33518
   H       -1.95406         1.97515        -0.27528
   H        1.27763         2.35152        -0.05680
   H        3.06877         0.57144         0.21810
   H       -2.10562        -3.25830         0.11873
   H        0.94649        -3.29414         0.39156
   H       -0.17752        -4.75416         0.41140
*
