13
 SCF done        -33.355921758958          0.000915295594
C          -1.46339341734998   -1.23887311295095    0.14425753088561
S          -2.64546708682173   -0.00000000005611    0.21897856074727
C          -1.46339341766201    1.23887311339093    0.14425753086848
C          -0.21082703532907    0.71009366544226    0.06751141815317
C          -0.21082703515479   -0.71009366573241    0.06751141819141
O           0.94693581879297   -1.43091914449360   -0.00359912227821
C           2.12417982006184   -0.77120877523500   -0.07730867015232
O           3.14941388110187   -1.38164808748511   -0.14159644325674
C           2.12417982031112    0.77120877474412   -0.07730867016459
O           3.14941388102470    1.38164808764405   -0.14159644311969
O           0.94693581860813    1.43091914456762   -0.00359912232992
H          -1.73908552368256   -2.27278418046855    0.16092600622514
H          -1.73908552390049    2.27278418063274    0.16092600623040
