# ORCA input file
# SCF done        -33.355921758958          0.000915295594
! B3LYP/G D3BJ Opt RIJCOSX def2-SVP def2/J
* xyz 0 1
   C       -1.46339        -1.23887         0.14426
   S       -2.64547        -0.00000         0.21898
   C       -1.46339         1.23887         0.14426
   C       -0.21083         0.71009         0.06751
   C       -0.21083        -0.71009         0.06751
   O        0.94694        -1.43092        -0.00360
   C        2.12418        -0.77121        -0.07731
   O        3.14941        -1.38165        -0.14160
   C        2.12418         0.77121        -0.07731
   O        3.14941         1.38165        -0.14160
   O        0.94694         1.43092        -0.00360
   H       -1.73909        -2.27278         0.16093
   H       -1.73909         2.27278         0.16093
*
