# ORCA input file
# SCF done        -29.005112395435          0.000955533939
! B3LYP/G D3BJ Opt RIJCOSX def2-SVP def2/J
* xyz 0 1
   C       -1.22238        -0.07165        -0.08372
   O       -0.45762         1.04006         0.01611
   C        0.80977         0.66624         0.13101
   C        0.91243        -0.70631         0.10965
   C       -0.43503        -1.18767        -0.03321
   O       -0.80817        -2.46710        -0.09963
   C        2.04896        -1.61966         0.20077
   O        1.90086        -2.81890         0.14350
   O        3.27025        -1.08732         0.35725
   H       -2.27953         0.05356        -0.18327
   H        1.54112         1.44778         0.21691
   H        0.00293        -3.01348        -0.03971
   H        3.25740        -0.12360         0.39458
*
