# ORCA input file
# SCF done        -23.113193928193          0.000298496231
! B3LYP/G D3BJ Opt RIJCOSX def2-SVP def2/J
* xyz 0 1
   C        1.35927        -0.20637        -0.06750
   C        0.81880         1.06467        -0.26870
   O        1.72271         2.07189        -0.43607
   C        1.24366         3.37568        -0.65476
   C       -0.56205         1.22160        -0.28582
   C       -1.38202         0.11905        -0.10526
   C       -0.84505        -1.13861         0.09195
   C        0.53263        -1.29543         0.11035
   H        2.43293        -0.30945        -0.05602
   H        2.12879         4.00086        -0.76280
   H        0.64983         3.73452         0.19234
   H        0.64525         3.43633        -1.56981
   H       -1.01106         2.19081        -0.43754
   H       -2.45388         0.25328        -0.12088
   H       -1.49228        -1.99132         0.23016
   H        0.96409        -2.27344         0.26396
*
