16
 SCF done        -23.113193928193          0.000298496231
C           1.35926714444008   -0.20637045880038   -0.06749885149767
C           0.81879644642209    1.06466794393069   -0.26870130625811
O           1.72271483737538    2.07188708099706   -0.43607420333795
C           1.24365899229270    3.37567658449965   -0.65475910942928
C          -0.56204845563266    1.22159789549934   -0.28581713988242
C          -1.38201560354767    0.11905498970980   -0.10526081904325
C          -0.84504779924338   -1.13860981664566    0.09194878000331
C           0.53263346264383   -1.29543111183171    0.11034570406911
H           2.43292996167084   -0.30945173908548   -0.05601616511281
H           2.12879493943690    4.00086228596736   -0.76279871993818
H           0.64982880552471    3.73452072194912    0.19233650206981
H           0.64525232773832    3.43633081643041   -1.56980958819695
H          -1.01106363681928    2.19080862199904   -0.43753631803072
H          -2.45388032130050    0.25327647225844   -0.12088288959679
H          -1.49228057047621   -1.99131837446720    0.23015535212592
H           0.96408946947485   -2.27344191241046    0.26395877205597
