# ORCA input file
# SCF done        -34.434224155475          0.000247753255
! B3LYP/G D3BJ Opt RIJCOSX def2-SVP def2/J
* xyz 0 1
   C        0.70001        -0.96726         0.00548
   C        1.18678         0.29052         0.00107
   C        0.07008         1.22308        -0.00080
   C       -1.14373         0.38331         0.00423
   C       -0.74738        -0.91763         0.00784
   C       -2.47225         0.81937         0.00664
   N       -3.57625         1.13778         0.00940
   C        0.12633         2.57948        -0.00784
   C       -0.99076         3.51160        -0.01480
   C       -0.50452         4.76957        -0.02350
   C        0.94285         4.72054        -0.02159
   C        1.33977         3.41978        -0.01218
   C        2.66824         2.98374        -0.00609
   N        3.77119         2.66185        -0.00063
   H        1.26755        -1.87916         0.00713
   H        2.21647         0.58828        -0.00160
   H       -1.39233        -1.77741         0.01193
   H       -2.02035         3.21344        -0.01380
   H       -1.07260         5.68111        -0.03077
   H        1.58750         5.58053        -0.02667
*
