21
 SCF done        -37.722909103653          0.000947656585
C          -1.53768587003411    1.17972305178109   -0.10812860373736
S          -2.66720292289722   -0.09260763633412   -0.19231391012657
C          -1.44133989519174   -1.30908745099815   -0.09153251539823
C          -0.18084044286301   -0.72842318927100   -0.03698518279111
C          -0.24813275083357    0.71097617600542   -0.02762085234747
C           0.95055068426585    1.47952490055686    0.05133999302619
C           0.86821068384993    2.88736363518361    0.08496342694323
N           0.79519759867215    4.03170919865938    0.11443186113053
C           2.16650176195242    0.83873408969964    0.08349999980141
C           2.23994762285857   -0.55909381672282   -0.00273467901133
C           1.10600498383261   -1.34112953229378   -0.07519128515148
C           1.28841011693964   -2.72725505903778   -0.27640774723394
N           1.53300437393765   -3.82838926931297   -0.48521891860430
C          -1.84752666133416   -2.69441421109275   -0.01183160949155
C          -1.30438240469983   -3.59218101772203    0.80241885163252
H          -1.86401584781752    2.20055727722619   -0.11584385081069
H           3.07657098771572    1.41575201055392    0.14743975022106
H           3.20890740554581   -1.03480128252310   -0.03127790237020
H          -2.70196817417479   -2.95964983575030   -0.62197990833769
H          -0.49869251381422   -3.34845677875310    1.47336197788003
H          -1.65426873590992   -4.60814125985392    0.82668110477697
