# ORCA input file
# SCF done        -32.769775350740          0.000452243380
! B3LYP/G D3BJ Opt RIJCOSX def2-SVP def2/J
* xyz 0 1
   C       -1.64471        -1.10781         0.34747
   S       -2.75514         0.18945         0.41063
   C       -1.52687         1.34445         0.17173
   C       -0.28677         0.75880         0.05406
   C       -0.35315        -0.68113         0.14244
   C        0.86262        -1.42753         0.05774
   C        0.94786        -2.90827         0.04489
   O        1.89847        -3.48521         0.52497
   C       -0.15422        -3.66295        -0.66154
   C        2.04486        -0.73825        -0.04915
   C        2.09850         0.66748        -0.14224
   C        0.95894         1.41110        -0.10795
   H       -2.01418        -2.10136         0.49132
   H       -1.76702         2.38821         0.14610
   H       -0.67967        -3.03837        -1.37710
   H       -0.85841        -4.04120         0.07792
   H        0.28217        -4.52447        -1.16298
   H        2.96304        -1.30572        -0.08996
   H        3.06068         1.14510        -0.24917
   H        0.98110         2.48724        -0.18947
*
