# ORCA input file
# SCF done        -42.586779852766          0.000314959952
! B3LYP/G D3BJ Opt RIJCOSX def2-SVP def2/J
* xyz 0 1
   C       -1.48123         1.21957        -0.02029
   S       -2.63508        -0.01902         0.00838
   C       -1.43923        -1.27834        -0.03757
   C       -0.15743        -0.72648        -0.04167
   C       -0.19213         0.71601        -0.04263
   C        1.00569         1.43840        -0.05101
   C        2.21744         0.78294        -0.03521
   N        3.38432         1.59900        -0.03402
   O        3.23906         2.80270        -0.12555
   O        4.48622         1.07354         0.06383
   C        2.27761        -0.65592         0.00955
   N        3.45975        -1.31426         0.02789
   C        1.08965        -1.36637         0.00712
   C       -1.91295        -2.63342        -0.07906
   C       -1.25177        -3.70751        -0.50817
   H       -1.78223         2.24779        -0.02331
   H        0.99075         2.51763        -0.05896
   H        4.31678        -0.78780         0.10466
   H        3.46168        -2.31195         0.13263
   H        1.13919        -2.44065         0.07069
   H       -2.94045        -2.74990         0.24568
   H       -0.25391        -3.65887        -0.90364
   H       -1.71484        -4.67845        -0.49722
*
