# ORCA input file
# SCF done        -19.098388097082          0.000214805940
! B3LYP/G D3BJ Opt RIJCOSX def2-SVP def2/J
* xyz 0 1
   C        2.70200        -0.24767         1.17074
   C        2.34008         0.03143        -0.07594
   C        3.08393        -0.31973        -1.26946
   C        2.68573         0.05140        -2.52473
   S        3.75174        -0.49312        -3.75144
   C        4.76095        -1.24279        -2.57411
   C        4.29347        -1.07332        -1.31660
   H        2.09638         0.04808         2.00985
   H        3.61060        -0.77575         1.40383
   H        1.41840         0.56920        -0.25979
   H        1.81950         0.62225        -2.79600
   H        5.64097        -1.76443        -2.89421
   H        4.78403        -1.47123        -0.44759
*
