13
 SCF done        -19.098388097082          0.000214805940
C           2.70200487923837   -0.24766784564653    1.17074191856885
C           2.34008366760955    0.03142732329757   -0.07594331799059
C           3.08392676981769   -0.31972848338483   -1.26946000546724
C           2.68573462188445    0.05139899070176   -2.52473250196851
S           3.75173820839172   -0.49312321056455   -3.75143844130003
C           4.76095391223970   -1.24278758237070   -2.57411316249386
C           4.29346663357323   -1.07332198138143   -1.31660281263062
H           2.09637593115424    0.04808218956254    2.00984921112750
H           3.61059534451672   -0.77575198976427    1.40382828443335
H           1.41840088196716    0.56919695719658   -0.25979152952125
H           1.81950084003800    0.62225476002584   -2.79600379341111
H           5.64097422064529   -1.76443246372426   -2.89421333127132
H           4.78403408892391   -1.47122666394776   -0.44759051807521
