12
 SCF done        -22.289252303601          0.000313143784
C          -1.96832240460334   -0.49507037090330   -0.00523012566465
N          -1.50506210499384    0.80964499219248   -0.00119722285182
C          -0.15493599369233    0.68247992245812   -0.00172072619966
N           1.03259897657832    1.33728697190675   -0.00026375164642
C           1.97754630295029    0.32537034558549   -0.00315874778998
N           1.47930125371813   -0.87349919435261   -0.00619758533643
C           0.12967236782485   -0.68631325805399   -0.00555478360237
N          -1.03347970627613   -1.39596680347048   -0.00725236353550
H          -3.01688785572316   -0.71394035567721   -0.00610194109487
H          -2.06366379337686    1.64630538822687    0.00112013573562
H           1.21141394561459    2.32726745848130    0.00245555515753
H           3.02644901197949    0.54261490360657   -0.00272844317144
