# ORCA input file
# SCF done        -22.289252303601          0.000313143784
! B3LYP/G D3BJ Opt RIJCOSX def2-SVP def2/J
* xyz 0 1
   C       -1.96832        -0.49507        -0.00523
   N       -1.50506         0.80964        -0.00120
   C       -0.15494         0.68248        -0.00172
   N        1.03260         1.33729        -0.00026
   C        1.97755         0.32537        -0.00316
   N        1.47930        -0.87350        -0.00620
   C        0.12967        -0.68631        -0.00555
   N       -1.03348        -1.39597        -0.00725
   H       -3.01689        -0.71394        -0.00610
   H       -2.06366         1.64631         0.00112
   H        1.21141         2.32727         0.00246
   H        3.02645         0.54261        -0.00273
*
