# ORCA input file
# SCF done        -43.006719452084          0.000542943733
! B3LYP/G D3BJ Opt RIJCOSX def2-SVP def2/J
* xyz 0 1
   C        1.36465         0.34198        -0.15270
   C        0.53238         1.30258         0.40131
   O        0.88565         2.59408         0.66629
   C        2.16863         3.03721         0.28141
   C        2.26005         4.52928         0.58459
   C        3.60862         5.10080         0.16899
   C       -0.78014         0.94911         0.72474
   C       -1.24190        -0.32320         0.48717
   C       -0.40835        -1.28911        -0.08269
   C        0.89799        -0.94374        -0.39291
   O       -0.97091        -2.51551        -0.28808
   C       -0.19925        -3.51969        -0.91112
   C       -1.08702        -4.74712        -1.08902
   C       -0.33631        -5.88648        -1.76413
   H        2.38771         0.57084        -0.40690
   H        2.32426         2.86420        -0.79342
   H        2.94518         2.49217         0.83801
   H        2.10022         4.67828         1.65336
   H        1.45555         5.03980         0.05315
   H        4.41609         4.60477         0.70304
   H        3.65249         6.16389         0.39001
   H        3.76935         4.96471        -0.89831
   H       -1.42025         1.69918         1.16111
   H       -2.25494        -0.60041         0.73135
   H        1.57694        -1.66226        -0.82471
   H        0.67256        -3.77228        -0.28996
   H        0.15954        -3.17171        -1.89057
   H       -1.95482        -4.46268        -1.68604
   H       -1.44648        -5.06119        -0.10808
   H        0.02526        -5.57996        -2.74332
   H       -0.99033        -6.74484        -1.89301
   H        0.51781        -6.19202        -1.16372
*
