# ORCA input file
# SCF done        -48.907606930870          0.000430579215
! B3LYP/G D3BJ Opt RIJCOSX def2-SVP def2/J
* xyz 0 1
   C       -3.21752        -0.93599         0.10976
   S       -1.84686        -1.98882         0.14566
   C       -2.89105         0.37171         0.03700
   C       -1.48189         0.59889         0.00569
   C       -0.78546         1.83177        -0.06283
   C       -1.61955         3.08548        -0.09142
   C       -2.05330         3.49504         1.31737
   C        0.59596         1.83351        -0.07172
   C        1.42797         3.08837        -0.08905
   C        1.94747         3.42427         1.31079
   C       -0.78414        -0.61778         0.05954
   C        0.60139        -0.61792         0.04037
   S        1.66433        -1.98489         0.09312
   C        1.29760         0.60106        -0.02742
   C        2.70115         0.38249        -0.04083
   C        3.06127        -0.93124         0.01729
   C        4.37286        -1.52670         0.02593
   C        5.52204        -0.86109        -0.05450
   H       -4.19788        -1.36950         0.14688
   H       -3.63097         1.15059         0.00926
   H       -2.50579         2.90961        -0.70379
   H       -1.07271         3.90872        -0.54961
   H       -2.60452         2.68956         1.79713
   H       -2.68923         4.37673         1.27664
   H       -1.18586         3.72407         1.93128
   H        0.85490         3.93469        -0.46450
   H        2.27479         2.94667        -0.76364
   H        1.11868         3.60662         1.99040
   H        2.57002         4.31586         1.27921
   H        2.53591         2.60206         1.71091
   H        3.42807         1.17129        -0.09378
   H        4.38155        -2.60648         0.10366
   H        5.56135         0.21167        -0.13614
   H        6.46681        -1.37496        -0.04193
*
