15
 SCF done        -32.461650830635          0.000693008193
C           0.88461836567149    1.54169758600971    0.16249645138641
S           2.33505512866565    0.60242960355543    0.12368415802684
C           1.50073867465278   -0.92450718425412   -0.06809864548035
C           0.16109543486138   -0.65872486839103   -0.09397294703802
C          -0.17695770051770    0.71083216638098    0.03439889128980
O          -1.53618115041536    0.80851812081607   -0.00896463812563
C          -2.02032800440408   -0.45656411721798   -0.15831260405023
O          -3.16924743851151   -0.73244437884701   -0.23169917148061
O          -1.00436565605900   -1.36087917604907   -0.21214996724527
C           2.21677806017245   -2.16785570856531   -0.16967792053342
C           1.61720830803717   -3.34509031560612   -0.32588508782833
H           0.92152301007042    2.60440517118007    0.27355113205489
H           3.29246317142469   -2.08609356707206   -0.10898498973903
H           0.54513897398323   -3.42671709108657   -0.38532420374776
H           2.18367082236836   -4.25611624085297   -0.39945045748929
