# ORCA input file
# SCF done        -32.461650830635          0.000693008193
! B3LYP/G D3BJ Opt RIJCOSX def2-SVP def2/J
* xyz 0 1
   C        0.88462         1.54170         0.16250
   S        2.33506         0.60243         0.12368
   C        1.50074        -0.92451        -0.06810
   C        0.16110        -0.65872        -0.09397
   C       -0.17696         0.71083         0.03440
   O       -1.53618         0.80852        -0.00896
   C       -2.02033        -0.45656        -0.15831
   O       -3.16925        -0.73244        -0.23170
   O       -1.00437        -1.36088        -0.21215
   C        2.21678        -2.16786        -0.16968
   C        1.61721        -3.34509        -0.32589
   H        0.92152         2.60441         0.27355
   H        3.29246        -2.08609        -0.10898
   H        0.54514        -3.42672        -0.38532
   H        2.18367        -4.25612        -0.39945
*
