# ORCA input file
# SCF done        -42.590671125962          0.000677728841
! B3LYP/G D3BJ Opt RIJCOSX def2-SVP def2/J
* xyz 0 1
   C       -1.43519         1.11268        -0.40558
   S       -2.49313        -0.21681        -0.51253
   C       -1.24485        -1.35165        -0.14111
   C       -0.02374        -0.69870         0.02521
   C       -0.14931         0.73264        -0.10442
   C        1.00196         1.55183         0.10485
   N        0.95221         2.96014        -0.00406
   O       -0.10570         3.49124        -0.30843
   O        1.97861         3.58674         0.21117
   C        2.20314         0.95285         0.42504
   C        2.33638        -0.42681         0.48221
   C        1.26342        -1.27485         0.24685
   N        1.44673        -2.62502         0.25633
   C       -1.58326        -2.74056         0.04339
   C       -2.64089        -3.33522        -0.50442
   H       -1.80631         2.10505        -0.55677
   H        3.06004         1.58643         0.59669
   H        3.30562        -0.85681         0.68525
   H        2.39970        -2.95038         0.27986
   H        0.79688        -3.19936        -0.25226
   H       -0.94767        -3.29604         0.72156
   H       -3.30200        -2.80760        -1.17132
   H       -2.87516        -4.36529        -0.30296
*
