# ORCA input file
# SCF done       -200.808425832412          0.000633833856
! CAM-B3LYP def2-SVP def2/J RIJCOSX Grid4 TightSCF
%maxcore 5000
%tddft
    Mode sTDDFT
    Ethresh 5.0
    maxcore 5000
end

%pal
  nprocs 6
  end
* xyz 0 1
   C       -0.77082         1.37028         3.21286
   C       -0.02386         0.33220         3.75310
   N       -0.32094        -1.01516         3.83390
   C       -1.31429        -1.61160         2.97269
   C       -0.78989        -1.74629         1.54334
   C        0.73191        -1.65314         4.45291
   C        1.73754        -0.69877         4.75912
   C        1.23488         0.57899         4.34193
   C        1.74545         1.86894         4.39366
   C        0.99345         2.89675         3.86104
   C       -0.24735         2.64732         3.27920
   C        2.95322        -1.08122         5.30309
   C        3.18794        -2.42903         5.51334
   C        2.20146        -3.36240         5.24834
   C        0.92912        -3.00652         4.78146
   C       -0.07570        -4.04257         4.77696
   C       -1.35328        -3.87202         5.18644
   C       -2.34554        -4.88924         5.20603
   C       -3.67973        -4.67665         5.77256
   N       -4.48633        -5.69186         5.66476
   C       -3.76375        -6.65581         5.02511
   C       -2.39769        -6.19055         4.73886
   C       -1.68532        -7.21665         4.02372
   S       -0.16232        -7.14395         3.39136
   C       -2.62459        -8.30350         3.89656
   C       -3.90372        -7.91796         4.50732
   N       -4.83939        -8.89391         4.33052
   C       -4.24540        -9.81636         3.62844
   C       -2.84760        -9.52957         3.30430
   C       -1.97324       -10.40713         2.57548
   C       -0.61821       -10.41532         2.83874
   C        0.23009       -11.29375         2.14396
   C        1.60237       -11.51638         2.23407
   C        2.60310       -10.85519         3.11488
   C        2.79216        -9.38032         2.70969
   N        3.90752        -8.79281         3.43647
   C        2.23895       -10.98537         4.60781
   N        3.45862       -10.94576         5.38981
   C        1.91886       -12.53817         1.26635
   C        3.09024       -13.11805         0.94171
   C        3.16465       -14.19823        -0.08070
   C        1.88362       -14.46896        -0.79839
   C        0.71865       -13.88279        -0.45987
   C        0.67920       -12.92073         0.57641
   C       -0.34050       -12.16764         1.12690
   C       -1.73098       -12.13382         0.87626
   C       -2.51967       -11.28861         1.58793
   C        3.58572       -15.44689         0.66251
   C        4.84003       -15.90661         0.68407
   C        5.26621       -17.07702         1.38829
   C        4.43847       -18.11889         1.99671
   N        5.11196       -19.07153         2.57854
   C        6.42585       -18.74551         2.40844
   C        6.55079       -17.49762         1.64031
   C        7.93652       -17.12151         1.51917
   S        8.54852       -15.78139         0.78393
   C        8.64648       -18.16362         2.22154
   C        7.68786       -19.15197         2.75563
   N        8.33574       -20.09557         3.49426
   C        9.58643       -19.72655         3.50718
   C        9.87298       -18.51956         2.73356
   C       11.15178       -17.85249         2.68443
   C       11.73991       -17.25648         1.55466
   N       11.44487       -17.35605         0.21910
   C       10.55850       -18.32021        -0.37620
   C       11.24908       -19.67315        -0.54625
   C       12.32736       -16.56756        -0.49477
   C       13.20618       -15.92782         0.41051
   C       12.86391       -16.40578         1.71825
   C       13.44377       -16.20006         2.95781
   C       12.92225       -16.87183         4.05097
   C       11.80898       -17.68012         3.91019
   C       14.16885       -15.02942        -0.02490
   C       14.23830       -14.75417        -1.37508
   C       13.37958       -15.38330        -2.26728
   C       12.42180       -16.31142        -1.86832
   C       11.61341       -16.95498        -2.91429
   C       10.93240       -16.27686        -3.82520
   H       -1.73335         1.20007         2.75492
   H       -2.20514        -0.97782         2.98962
   H       -1.58640        -2.59672         3.34883
   H       -0.51003        -0.77373         1.14416
   H       -1.55554        -2.18105         0.90651
   H        0.08471        -2.39310         1.52697
   H        2.70818         2.06003         4.84302
   H        1.36783         3.90897         3.89216
   H       -0.81259         3.47076         2.86822
   H        3.70477        -0.34190         5.53350
   H        4.13948        -2.75752         5.90325
   H        2.38788        -4.40528         5.45933
   H        0.26305        -5.03796         4.52174
   H       -1.66945        -2.90560         5.56328
   H       -4.00015        -3.76882         6.25537
   H       -4.76844       -10.72116         3.37134
   H       -0.21961        -9.76620         3.59988
   H        3.56713       -11.35999         2.99426
   H        1.89475        -8.81318         2.96188
   H        2.91882        -9.33421         1.61436
   H        3.93858        -7.79235         3.27480
   H        4.78492        -9.18865         3.11233
   H        1.75579       -11.95362         4.77969
   H        1.52273       -10.19473         4.87832
   H        3.25081       -11.01933         6.37958
   H        3.91874       -10.05514         5.21947
   H        4.01686       -12.86670         1.43891
   H        3.95609       -13.95356        -0.80116
   H        1.93218       -15.20454        -1.58691
   H       -0.19321       -14.12428        -0.98668
   H       -2.15245       -12.78102         0.12108
   H       -3.58125       -11.24598         1.39619
   H        2.79578       -15.93679         1.21239
   H        5.62533       -15.37543         0.16004
   H        3.36343       -18.15396         1.97555
   H       10.32555       -20.31720         4.02095
   H       10.22876       -17.92662        -1.33950
   H        9.67804       -18.44631         0.25262
   H       12.15366       -19.57187        -1.14268
   H       10.57928       -20.37403        -1.03747
   H       11.52417       -20.07952         0.42507
   H       14.29443       -15.54451         3.06241
   H       13.36906       -16.74964         5.02591
   H       11.38326       -18.14985         4.78512
   H       14.83403       -14.55413         0.67936
   H       14.96621       -14.04975        -1.74865
   H       13.46523       -15.16751        -3.32226
   H       11.64678       -18.03677        -2.95872
   H       10.88148       -15.20095        -3.80390
   H       10.38337       -16.76949        -4.60982
*
