# ORCA input file
# SCF done       -195.201659553944          0.000308363086
! CAM-B3LYP def2-SVP def2/J RIJCOSX Grid4 TightSCF
%maxcore 5000
%tddft
    Mode sTDDFT
    Ethresh 5.0
    maxcore 5000
end

%pal
  nprocs 6
  end
* xyz 0 1
   C        1.47093         2.54160        -2.04642
   S        2.65369         1.60416        -2.82934
   C        1.47362         0.49177        -3.45731
   C        0.17912         0.91395        -3.11050
   C        0.18838         2.07500        -2.27213
   C       -1.01801         2.61523        -1.76937
   C       -2.20546         2.04055        -2.13866
   O       -3.43837         2.42122        -1.71221
   C       -3.53458         3.49625        -0.80845
   C       -2.21818         0.96311        -3.06663
   C       -1.06768         0.41310        -3.54208
   C        1.90731        -0.68137        -4.11204
   C        1.15676        -1.81477        -4.19721
   C        1.56311        -2.99946        -4.84610
   N        2.72012        -3.12829        -5.49093
   C        2.73118        -4.38158        -5.97299
   C        1.49982        -5.10953        -5.62451
   C        1.54109        -6.47807        -6.15791
   O        0.70417        -7.35347        -6.05913
   C        2.84822        -6.52173        -6.83451
   C        3.54095        -5.22822        -6.69973
   N        4.74644        -5.26311        -7.31459
   C        4.84103        -6.47599        -7.81215
   C        3.69441        -7.31255        -7.54904
   C        0.73761        -4.23450        -4.89411
   C       -0.54032        -4.36869        -4.28583
   C       -1.31556        -5.47380        -4.34870
   C       -2.60208        -5.60070        -3.71257
   C       -3.29772        -4.51706        -3.21595
   C       -4.52657        -4.69634        -2.55816
   C       -5.39043        -3.78603        -1.95380
   C       -5.27298        -2.30361        -1.85582
   C       -3.94286        -1.84993        -1.22160
   N       -4.15196        -0.61482        -0.48592
   C       -5.47590        -1.64078        -3.24596
   N       -6.76377        -1.86836        -3.85434
   C       -6.49305        -4.54924        -1.42651
   C       -7.58797        -4.17137        -0.73959
   C       -8.61315        -5.15943        -0.31139
   C       -8.25225        -6.59029        -0.56101
   C       -7.15839        -6.95081        -1.26336
   C       -6.25360        -5.97123        -1.72587
   C       -5.06052        -6.04429        -2.41928
   C       -4.34826        -7.13599        -2.96779
   C       -3.16521        -6.91435        -3.59425
   C       -9.85756        -4.94361        -1.13186
   C      -11.07701        -4.75170        -0.60872
   C      -12.24117        -4.61730        -1.42937
   N      -12.14018        -4.49056        -2.74385
   C      -13.39341        -4.27572        -3.19638
   C      -14.35337        -4.23810        -2.09204
   C      -15.71454        -4.00287        -2.58835
   O      -16.74513        -3.90094        -1.95660
   C      -15.50828        -3.92153        -4.04964
   C      -14.07955        -4.08935        -4.37538
   N      -13.88388        -4.04050        -5.71558
   C      -15.07926        -3.86451        -6.22848
   C      -16.13849        -3.79011        -5.24661
   C      -13.63914        -4.50418        -0.94722
   C      -14.16028        -4.62335         0.36856
   C      -13.59612        -5.33262         1.38065
   C      -14.08114        -5.46322         2.70184
   S      -13.45219        -6.77346         3.65383
   C      -14.47637        -6.43675         4.99929
   C      -15.23904        -5.28956         4.75555
   C      -15.01694        -4.72835         3.45379
   C      -15.66259        -3.53617         3.09999
   C      -16.52734        -2.92340         3.98290
   O      -17.10212        -1.77402         3.54674
   C      -18.01568        -1.10011         4.37816
   C      -16.73962        -3.47648         5.26670
   C      -16.10110        -4.62104         5.64763
   C      -14.42620        -7.33035         6.12120
   C      -15.40053        -7.56114         7.00147
   H        1.76261         3.38554        -1.45303
   H       -0.96635         3.47232        -1.11798
   H       -4.59590         3.60872        -0.59512
   H       -3.15148         4.42211        -1.24781
   H       -2.99774         3.28408         0.12147
   H       -3.18090         0.60672        -3.39820
   H       -1.11326        -0.36978        -4.28127
   H        2.91266        -0.70360        -4.50965
   H        0.19914        -1.83956        -3.70226
   H        5.71970        -6.76934        -8.36028
   H        3.57617        -8.32987        -7.86660
   H       -0.88820        -3.51529        -3.72054
   H       -0.94620        -6.34150        -4.87955
   H       -2.91222        -3.51753        -3.33691
   H       -6.06443        -1.93523        -1.19447
   H       -3.16740        -1.76214        -1.99968
   H       -3.61362        -2.60686        -0.50401
   H       -4.37294         0.14877        -1.11706
   H       -3.30955        -0.35744         0.01619
   H       -4.71544        -2.01168        -3.93810
   H       -5.35320        -0.55894        -3.13817
   H       -6.91490        -2.85724        -4.02036
   H       -7.51286        -1.53207        -3.25959
   H       -7.79306        -3.13689        -0.50035
   H       -8.85663        -5.00146         0.74662
   H       -8.95382        -7.32430        -0.19651
   H       -6.94541        -7.99299        -1.45206
   H       -4.75528        -8.13274        -2.88295
   H       -2.60646        -7.73634        -4.01650
   H       -9.74504        -5.01286        -2.20363
   H      -11.21052        -4.67083         0.46047
   H      -15.20577        -3.78601        -7.29451
   H      -17.18060        -3.65692        -5.46110
   H      -15.13474        -4.17729         0.50352
   H      -12.72442        -5.93877         1.16624
   H      -15.48117        -3.05628         2.15457
   H      -17.54124        -0.75094         5.30117
   H      -18.87751        -1.72848         4.62391
   H      -18.35308        -0.23981         3.80235
   H      -17.39012        -2.97963         5.96877
   H      -16.22818        -4.99697         6.64946
   H      -13.50440        -7.89479         6.19949
   H      -16.36643        -7.09378         6.93503
   H      -15.26121        -8.26259         7.80522
*
