# ORCA input file
# SCF done       -192.374698850599          0.000613797978
! CAM-B3LYP def2-SVP def2/J RIJCOSX Grid4 TightSCF
%maxcore 5000
%tddft
    Mode sTDDFT
    Ethresh 5.0
    maxcore 5000
end

%pal
  nprocs 6
  end
* xyz 0 1
   C       10.37018         0.79902         0.17503
   S        9.03650         0.93009        -0.87929
   C        8.20151         1.98857         0.22717
   C        8.97879         2.20994         1.36072
   C       10.21218         1.52700         1.31997
   C       11.22709         1.60486         2.41750
   C       10.56391         2.05507         3.72763
   C        9.71271         1.00156         4.23324
   N        9.04434         0.16032         4.62118
   C        9.72534         3.32982         3.47967
   C       10.58265         4.35599         2.93084
   N       11.27235         5.15124         2.48625
   C        8.55988         3.04586         2.51984
   C        6.90245         2.51585         0.00330
   N        6.32598         3.21945         0.97295
   C        5.11204         3.57201         0.51044
   C        4.88408         3.05981        -0.84073
   C        3.55018         3.46089        -1.31170
   O        3.00839         3.21816        -2.37311
   C        3.01816         4.23433        -0.17555
   C        4.00234         4.27823         0.91659
   N        3.52788         4.99345         1.96486
   C        2.33090         5.38724         1.59361
   C        1.95103         4.95121         0.26933
   C        6.03263         2.38402        -1.19487
   C        6.35431         1.71826        -2.40746
   C        5.46998         1.59439        -3.42630
   C        5.68975         0.94556        -4.68540
   C        4.64072         0.93107        -5.58925
   C        4.77769         0.31960        -6.84564
   C        3.90122         0.16846        -7.92068
   C        2.47193         0.54670        -8.08212
   C        1.57592        -0.66779        -7.71543
   N        1.59516        -1.65073        -8.78187
   C        2.01796         1.77728        -7.28679
   N        0.73744         2.22968        -7.80961
   C        4.60578        -0.59445        -8.92271
   C        4.20279        -1.04103       -10.12707
   C        5.08818        -1.90804       -10.95994
   C        6.47736        -2.07042       -10.43548
   C        6.86965        -1.58748        -9.24157
   C        5.95785        -0.87099        -8.42932
   C        6.05279        -0.31294        -7.16988
   C        7.10928        -0.28843        -6.23038
   C        6.93244         0.32190        -5.03168
   C        4.34292        -3.21568       -11.04692
   C        4.68577        -4.31795       -10.36719
   C        3.94139        -5.53453       -10.46169
   N        2.82943        -5.62331       -11.17547
   C        2.40793        -6.89714       -11.04388
   C        3.31513        -7.67700       -10.18823
   C        2.83991        -9.06218       -10.06691
   O        3.32907        -9.97991        -9.44018
   C        1.61894        -9.06018       -10.89323
   C        1.39071        -7.71997       -11.46635
   N        0.27041        -7.70968       -12.22972
   C       -0.19564        -8.93485       -12.16775
   C        0.59712        -9.82921       -11.35230
   C        4.31148        -6.81191        -9.80664
   C        5.47232        -7.01209        -9.00647
   C        5.76822        -8.19573        -8.42178
   C        6.91771        -8.48430        -7.63009
   S        6.84428        -9.87746        -6.58449
   C        8.42498        -9.58238        -6.00891
   C        9.00286        -8.49200        -6.59444
   C        8.14826        -7.85978        -7.52595
   C        8.59191        -6.67516        -8.32721
   C       10.12492        -6.55874        -8.33576
   C       10.70192        -7.61272        -9.13927
   N       11.15846        -8.44854        -9.76998
   C       10.67840        -6.64900        -6.89536
   C       10.06283        -5.62063        -6.08808
   N        9.57232        -4.79872        -5.46363
   C       10.40384        -8.04175        -6.30923
   H       11.20709         0.18897        -0.10311
   H       12.00155         2.33030         2.14702
   H       11.71084         0.63397         2.55052
   H       11.33606         2.25727         4.48044
   H        9.32380         3.70163         4.42993
   H        8.11869         3.97900         2.16187
   H        7.76063         2.52357         3.05459
   H        1.72566         5.98108         2.25642
   H        1.02029         5.16804        -0.21703
   H        7.34741         1.30709        -2.49576
   H        4.48524         2.02428        -3.29805
   H        3.71226         1.39754        -5.30438
   H        2.29082         0.76020        -9.14148
   H        0.57225        -0.27150        -7.51199
   H        1.96357        -1.12711        -6.80354
   H        0.93983        -1.39654        -9.51243
   H        1.34984        -2.57302        -8.44653
   H        2.80464         2.54759        -7.33111
   H        1.85510         1.50634        -6.24210
   H        0.34765         2.95043        -7.21346
   H        0.85194         2.62501        -8.73725
   H        3.21179        -0.85204       -10.50666
   H        5.13405        -1.49321       -11.97754
   H        7.15424        -2.62907       -11.06505
   H        7.88059        -1.73565        -8.88894
   H        8.04787        -0.76333        -6.47590
   H        7.73892         0.33652        -4.31557
   H        3.46184        -3.24103       -11.67102
   H        5.55510        -4.31029        -9.72557
   H       -1.09456        -9.20055       -12.69676
   H        0.38692       -10.86571       -11.17641
   H        6.11030        -6.15483        -8.86026
   H        5.06629        -9.01358        -8.52855
   H        8.85605       -10.22843        -5.26992
   H        8.18205        -5.75660        -7.89208
   H        8.22521        -6.76218        -9.35399
   H       10.41377        -5.59928        -8.78381
   H       11.76013        -6.46353        -6.90119
   H       10.58289        -8.03658        -5.23074
   H       11.10507        -8.75327        -6.75766
*
