# ORCA input file
# SCF done       -198.566330817019          0.000428935057
! CAM-B3LYP def2-SVP def2/J RIJCOSX Grid4 TightSCF
%maxcore 5000
%tddft
    Mode sTDDFT
    Ethresh 5.0
    maxcore 5000
end

%pal
  nprocs 6
  end
* xyz 0 1
   C        6.65257         4.85798         8.00276
   S        5.34912         4.78838         6.90105
   C        6.43796         4.96585         5.54216
   C        7.74596         5.08523         5.98228
   C        7.86186         5.01389         7.38512
   C        9.16724         5.13499         8.11920
   N        9.20100         6.43256         8.77950
   C       10.32695         4.87238         7.13995
   C       10.16243         5.68702         5.86054
   C        8.92138         5.24625         5.05931
   N        9.08317         4.00834         4.30938
   C        5.97581         4.96748         4.20682
   C        4.66384         4.96674         3.85335
   C        4.24308         4.96946         2.50203
   N        5.11102         5.13504         1.50536
   C        4.37947         5.22739         0.38420
   C        2.94211         5.11898         0.67658
   C        2.14553         5.24706        -0.55317
   O        0.93971         5.21075        -0.67729
   C        3.18364         5.43589        -1.58325
   C        4.52680         5.41548        -0.97216
   N        5.48475         5.57886        -1.91530
   C        4.83148         5.69270        -3.04938
   C        3.39580         5.60885        -2.91548
   C        2.83640         4.91130         2.02558
   C        1.63114         4.71230         2.76572
   C        1.52888         4.07274         3.94821
   C        0.33227         3.90601         4.73310
   C        0.45788         3.42409         6.01926
   C       -0.67049         3.29582         6.85046
   C       -0.79556         2.85117         8.16074
   C        0.29671         2.25994         8.98578
   C        0.58286         3.06375        10.26346
   N        1.05891         4.39120         9.91001
   C        0.00879         0.78135         9.31723
   N        1.19252         0.15814         9.88147
   C       -2.19154         2.97993         8.51051
   C       -2.86921         2.74206         9.65038
   C       -4.35171         2.85907         9.72282
   C       -4.99715         3.45243         8.50843
   C       -4.30278         3.71663         7.38330
   C       -2.90924         3.49314         7.32935
   C       -1.97259         3.68598         6.33178
   C       -2.07999         4.14845         5.00010
   C       -0.96597         4.24955         4.23147
   C       -4.96148         1.47815         9.81121
   C       -4.37797         0.41742         9.23467
   C       -4.83963        -0.92721         9.32055
   N       -5.96779        -1.29473         9.90638
   C       -5.96864        -2.64380         9.88258
   C       -4.74003        -3.17213         9.26743
   C       -4.74930        -4.64122         9.26778
   O       -3.88878        -5.40137         8.87496
   C       -6.05438        -4.95220         9.88085
   C       -6.75946        -3.70816        10.24730
   N       -7.96261        -3.98653        10.80580
   C       -8.04712        -5.29600        10.80013
   C       -6.89385        -5.96081        10.23456
   C       -4.01862        -2.07800         8.87101
   C       -2.75815        -1.93942         8.22631
   C       -1.79827        -2.88879         8.17121
   C       -0.50376        -2.62762         7.62203
   S        0.86548        -3.35756         8.41742
   C        1.97554        -2.41248         7.47483
   C        1.30561        -1.61363         6.56805
   C       -0.09904        -1.75206         6.62808
   C       -1.01692        -1.12892         5.59200
   N       -2.08356        -1.99132         5.11917
   C       -0.18144        -0.70258         4.38125
   C        0.98760         0.15672         4.82983
   C        2.00854        -0.67622         5.61951
   N        2.96009         0.15062         6.35859
   C        3.39484        -2.51649         7.67050
   C        3.97825        -3.36361         8.51510
   H        6.46921         4.78551         9.05619
   H        9.19987         4.38503         8.92046
   H        9.13578         7.18264         8.09992
   H       10.06735         6.54704         9.29360
   H       10.35269         3.80649         6.90088
   H       11.27241         5.12501         7.62636
   H       11.04840         5.57730         5.23022
   H       10.06664         6.74691         6.10857
   H        8.69095         6.02429         4.32002
   H        9.32210         3.24070         4.92732
   H        9.81945         4.10166         3.61926
   H        6.72361         4.94704         3.42700
   H        3.90645         5.00198         4.62328
   H        5.36810         5.83753        -3.97120
   H        2.68815         5.67674        -3.71811
   H        0.74715         5.09013         2.26976
   H        2.41693         3.63529         4.38599
   H        1.44051         3.18891         6.40602
   H        1.21752         2.28111         8.39105
   H        1.29533         2.47830        10.86586
   H       -0.33382         3.18987        10.84212
   H        1.94900         4.32993         9.42608
   H        1.19990         4.94924        10.74432
   H       -0.34567         0.28255         8.39839
   H       -0.78872         0.71719        10.06089
   H        1.91242         0.04573         9.17374
   H        0.97225        -0.76602        10.23498
   H       -2.38383         2.38195        10.54617
   H       -4.63425         3.42335        10.61970
   H       -6.06241         3.61131         8.56394
   H       -4.80074         4.12338         6.51516
   H       -3.04905         4.41729         4.60682
   H       -1.04986         4.59153         3.21239
   H       -5.90475         1.36844        10.32398
   H       -3.44348         0.56520         8.71202
   H       -8.91925        -5.78475        11.19889
   H       -6.76997        -7.02135        10.13693
   H       -2.54137        -0.96474         7.81080
   H       -1.95439        -3.84542         8.65101
   H       -1.48942        -0.22678         6.00893
   H       -1.70141        -2.86258         4.76746
   H       -2.74297        -2.21808         5.85413
   H       -0.82454        -0.15515         3.69289
   H        0.18531        -1.59346         3.86647
   H        0.61008         0.96276         5.46714
   H        1.47992         0.61485         3.96901
   H        2.59967        -1.28023         4.91669
   H        2.45523         0.76952         6.98615
   H        3.48540         0.73028         5.71259
   H        3.98051        -1.83016         7.07620
   H        3.40346        -4.04613         9.12034
   H        5.04738        -3.40457         8.62290
*
