# ORCA input file
# SCF done       -144.612608728232          0.000655191477
! CAM-B3LYP def2-SVP def2/J RIJCOSX Grid4 TightSCF
%maxcore 5000
%tddft
    Mode sTDDFT
    Ethresh 5.0
    maxcore 5000
end

%pal
  nprocs 6
  end
* xyz 0 1
   C        2.70135         5.89265         3.52320
   C        3.64686         5.93494         2.57235
   C        3.03205         6.00847         1.25523
   C        1.67888         6.00340         1.37571
   C        1.37192         5.93466         2.86251
   O        0.29042         5.91325         3.39159
   C        0.68520         6.05579         0.36669
   C       -0.75346         6.21380         0.62340
   N       -1.48974         6.23425        -0.44836
   C       -0.62437         6.08733        -1.48977
   C        0.76292         5.98864        -1.01419
   C        1.64070         5.78006        -2.13731
   S        3.27190         5.53668        -2.08598
   C        0.77674         5.76684        -3.29264
   C       -0.61418         5.95880        -2.85497
   N       -1.47024         5.90840        -3.91347
   C       -0.72232         5.65961        -4.94863
   C        0.70816         5.54160        -4.65570
   C        1.72290         5.26919        -5.63431
   C        3.03613         5.63161        -5.39606
   C        4.03220         5.34387        -6.34040
   C        5.41005         5.56564        -6.32334
   C        6.25816         6.16246        -5.25967
   C        5.67674         7.45497        -4.65521
   N        6.77033         8.34948        -4.31969
   C        6.52579         5.11729        -4.15255
   N        7.26917         3.99821        -4.70297
   C        5.93165         5.00573        -7.54704
   C        7.19888         4.88806        -7.98884
   C        7.50607         4.24526        -9.29499
   C        6.31554         3.71164       -10.02507
   C        5.05543         3.82866        -9.56200
   C        4.81054         4.45868        -8.31970
   C        3.66235         4.66774        -7.57564
   C        2.31054         4.32981        -7.80487
   C        1.37528         4.62246        -6.86370
   C        8.19808         5.26533       -10.16770
   C        9.48215         5.17636       -10.52639
   C       10.17249         6.11734       -11.35379
   C        9.63151         7.28781       -12.05283
   N       10.51096         7.95901       -12.73914
   C       11.69545         7.30454       -12.55501
   C       11.50557         6.13548       -11.68469
   C       12.76074         5.45322       -11.48850
   S       12.99233         4.09589       -10.58559
   C       13.71063         6.22111       -12.24945
   C       13.02031         7.35522       -12.89759
   N       13.89561         8.10307       -13.62790
   C       15.05256         7.53021       -13.48269
   C       15.03600         6.33273       -12.62697
   C       16.17315         5.54630       -12.31786
   C       16.26324         4.44294       -11.52901
   C       17.63800         3.96722       -11.50013
   C       18.41648         4.75441       -12.25871
   C       17.56948         5.82340       -12.84690
   O       17.91620         6.71226       -13.58173
   H        2.82267         5.83461         4.58771
   H        4.71253         5.92144         2.71967
   H        3.59212         6.06076         0.33979
   H       -1.19210         6.31449         1.59963
   H       -1.16531         5.59898        -5.92736
   H        3.28967         6.14004        -4.48257
   H        7.22545         6.42578        -5.69653
   H        5.04188         7.20686        -3.79028
   H        5.05895         7.96039        -5.40249
   H        7.33250         7.95909        -3.57108
   H        6.41730         9.24695        -4.00831
   H        5.56437         4.83038        -3.70058
   H        7.14490         5.57699        -3.37836
   H        6.67664         3.45135        -5.31916
   H        7.59591         3.38928        -3.96180
   H        8.03951         5.26006        -7.42138
   H        8.21833         3.42729        -9.11562
   H        6.52106         3.23444       -10.97118
   H        4.22295         3.42942       -10.12296
   H        2.03382         3.83039        -8.72165
   H        0.34627         4.34086        -7.02449
   H        7.57596         6.08803       -10.48799
   H       10.08650         4.34753       -10.17820
   H        8.60366         7.60491       -12.03779
   H       15.93104         7.92389       -13.96184
   H       15.45760         3.97253       -10.99488
   H       17.94516         3.10336       -10.93754
   H       19.46997         4.67511       -12.44618
*
