# ORCA input file
# SCF done       -161.558403352085          0.000619783493
! CAM-B3LYP def2-SVP def2/J RIJCOSX Grid4 TightSCF
%maxcore 5000
%tddft
    Mode sTDDFT
    Ethresh 5.0
    maxcore 5000
end

%pal
  nprocs 6
  end
* xyz 0 1
   C       12.67879         4.69961         9.37704
   O       13.42505         4.01682        10.25039
   C       14.61864         3.79356         9.67004
   C       14.65323         4.32724         8.42426
   C       13.37522         4.93271         8.21162
   C       12.96131         5.62353         7.02629
   C       11.75087         6.19276         6.83600
   C       11.39355         6.87865         5.64448
   C       10.18143         7.46005         5.45999
   C        9.78661         8.17249         4.30155
   C       10.56443         8.42009         3.08022
   N        9.95059         9.13550         2.18414
   C        8.72526         9.42051         2.72121
   C        8.59083         8.81479         4.04783
   C        7.30981         9.13833         4.61362
   S        6.77587         8.70436         6.11186
   C        6.65934         9.94419         3.60513
   C        7.57060        10.11042         2.45805
   N        7.01445        10.91623         1.50879
   C        5.86409        11.27778         1.99714
   C        5.55273        10.71381         3.31317
   C        4.32513        10.94623         4.02355
   C        3.60092        12.10131         3.80203
   C        2.40881        12.32719         4.51098
   C        1.51838        13.39792         4.48244
   C        1.64834        14.62120         3.63912
   C        0.43258        14.81032         2.71802
   N        0.13127        13.55761         2.04698
   C        1.89956        15.86935         4.50473
   N        3.22020        15.77007         5.09726
   C        0.46886        13.09130         5.42421
   C       -0.63686        13.76399         5.80033
   C       -1.57411        13.22660         6.82228
   C       -1.22865        11.86709         7.34048
   C       -0.11367        11.20968         6.96860
   C        0.76567        11.77737         6.01888
   C        1.94702        11.32761         5.46100
   C        2.70281        10.15027         5.65728
   C        3.85342         9.97148         4.95975
   C       -1.60244        14.15450         8.01364
   C       -2.73197        14.63582         8.54214
   C       -2.81367        15.45832         9.70917
   C       -1.72873        15.98357        10.53818
   N       -2.12520        16.68827        11.56224
   C       -3.48805        16.68900        11.49795
   C       -3.94760        15.93694        10.32378
   C       -5.38897        15.91032        10.27890
   S       -6.32648        15.14398         9.16578
   C       -5.78938        16.65227        11.44566
   C       -4.60210        17.11789        12.17682
   N       -4.96622        17.79635        13.30267
   C       -6.26657        17.74895        13.33538
   C       -6.87305        17.02727        12.21469
   C       -8.25806        16.83157        11.96852
   O       -8.64701        16.57397        10.69876
   C       -9.97618        16.44617        10.69849
   C      -10.48606        16.60670        11.94885
   C       -9.37881        16.85350        12.80772
   C       -9.39566        16.99854        14.23265
   C      -10.50940        17.15314        14.97286
   C      -10.49312        17.26710        16.40490
   C      -11.59108        17.42559        17.14385
   H       11.68618         4.96403         9.68244
   H       15.34709         3.25163        10.23972
   H       15.46953         4.30445         7.73203
   H       13.70131         5.67994         6.23803
   H       11.00462         6.14128         7.61660
   H       12.14190         6.93099         4.86491
   H        9.44137         7.39968         6.24823
   H       11.55991         8.05951         2.88886
   H        5.20939        11.90961         1.42243
   H        3.96937        12.85199         3.11940
   H        2.53320        14.50124         3.00648
   H        0.64968        15.64223         2.02487
   H       -0.44852        15.08796         3.30095
   H        0.92884        13.24955         1.50042
   H       -0.65263        13.67278         1.41447
   H        1.08966        15.97257         5.24558
   H        1.88917        16.75751         3.86574
   H        3.27326        14.95778         5.70362
   H        3.43206        16.59291         5.64966
   H       -0.88769        14.73729         5.40385
   H       -2.58476        13.20521         6.39158
   H       -1.91401        11.45231         8.06352
   H        0.11416        10.23535         7.37587
   H        2.35936         9.40319         6.35697
   H        4.43754         9.07600         5.09459
   H       -0.63821        14.36548         8.45294
   H       -3.68652        14.39731         8.08892
   H       -0.67749        15.84158        10.35860
   H       -6.80587        18.26282        14.11095
   H      -10.44681        16.24171         9.75655
   H      -11.51615        16.53939        12.23034
   H       -8.43752        16.95253        14.73185
   H      -11.47805        17.20544        14.49564
   H       -9.52198        17.21711        16.88086
   H      -12.56947        17.48057        16.69480
   H      -11.54997        17.50721        18.21590
*
