# ORCA input file
# SCF done       -199.208346028828          0.000635252583
! CAM-B3LYP def2-SVP def2/J RIJCOSX Grid4 TightSCF
%maxcore 5000
%tddft
    Mode sTDDFT
    Ethresh 5.0
    maxcore 5000
end

%pal
  nprocs 6
  end
* xyz 0 1
   C       -8.02493        14.98898         3.51907
   C       -7.99882        15.25562         4.86575
   C       -8.41246        16.47643         5.43868
   N       -8.72979        17.44252         5.97224
   C       -7.59102        14.36428         5.87930
   N       -7.28860        13.70121         6.76779
   C       -8.50882        15.90434         2.49362
   C       -8.48969        15.23689         1.24484
   C       -8.88930        15.83957         0.07688
   C       -9.32686        17.16595         0.14184
   C       -9.33919        17.82639         1.39354
   C       -8.93697        17.21634         2.57554
   S       -9.90865        19.45880         1.23743
   C      -10.12181        19.24682        -0.46581
   C       -9.78471        18.01457        -0.90512
   C       -7.97687        13.86334         1.42079
   O       -7.83863        13.04088         0.54321
   C       -7.64166        13.74989         2.86603
   C       -6.98683        12.72167         3.48896
   C       -6.61124        11.46053         2.99040
   O       -6.98578        10.99401         1.78795
   C       -6.47119         9.76300         1.61416
   C       -5.73174         9.40737         2.73519
   C       -5.81927        10.48202         3.63080
   C       -5.20168        10.53566         4.95000
   O       -4.48291         9.67662         5.39407
   C       -6.77153         9.07391         0.40613
   C       -6.30482         7.84000         0.11197
   C       -6.59672         7.06353        -1.06247
   C       -7.45354         7.48807        -2.05505
   C       -7.73986         6.65081        -3.15044
   C       -8.58490         6.83215        -4.23685
   C       -9.37748         8.06074        -4.53780
   C       -9.06212         8.60799        -5.93882
   N       -7.62304         8.64614        -6.13574
   C      -10.88582         7.81768        -4.35458
   N      -11.16317         7.62425        -2.94324
   C       -8.55053         5.60600        -4.99996
   C       -9.23739         5.19602        -6.08195
   C       -9.07273         3.82672        -6.65181
   C       -8.02330         2.99273        -5.98057
   C       -7.35162         3.41133        -4.89319
   C       -7.60062         4.69082        -4.34256
   C       -7.12167         5.33243        -3.22180
   C       -6.22014         4.93314        -2.20595
   C       -5.97389         5.77120        -1.17081
   C       -8.77129         3.91569        -8.12053
   C       -9.50291         3.30441        -9.05953
   C       -9.22808         3.35623       -10.46301
   O       -8.18966         4.06263       -10.93125
   C       -8.17108         3.94963       -12.28868
   C       -9.21783         3.14884       -12.69658
   C       -9.90778         2.75724       -11.52893
   C      -11.07733         1.89623       -11.47792
   O      -11.58755         1.36876       -12.43286
   C       -7.15602         4.62954       -13.01338
   C       -7.06332         4.62788       -14.36547
   C       -6.04169         5.31325       -15.06531
   C       -5.95852         5.50666       -16.41005
   C       -6.91473         5.27691       -17.47310
   C       -8.27890         5.37232       -17.37654
   C       -9.15484         5.20061       -18.46867
   N       -9.90955         5.05239       -19.32066
   C       -8.96354         5.77089       -16.20903
   N       -9.56767         6.14006       -15.30536
   C       -6.15886         5.16523       -18.71542
   C       -4.81668         5.55630       -18.46749
   C       -4.65569         5.86756       -17.03518
   O       -3.66984         6.27721       -16.46578
   C       -3.86736         5.59444       -19.46035
   C       -4.25456         5.21965       -20.75068
   C       -5.59202         4.81690       -20.98320
   C       -6.55640         4.78629       -19.98258
   S       -5.83885         4.38508       -22.64523
   C       -4.18675         4.74490       -23.00937
   C       -3.47583         5.16712       -21.94114
   H       -8.86311        15.30239        -0.85854
   H       -8.96066        17.76496         3.50198
   H      -10.49199        20.07245        -1.04203
   H       -9.85110        17.70236        -1.93166
   H       -6.69081        12.87561         4.51713
   H       -5.19947         8.49517         2.90758
   H       -5.44465        11.43921         5.53950
   H       -7.41581         9.61830        -0.26795
   H       -5.65004         7.36263         0.82963
   H       -7.93523         8.45058        -1.98679
   H       -9.09678         8.82640        -3.80810
   H       -9.54813         9.59397        -6.04288
   H       -9.47834         7.95327        -6.70824
   H       -7.18609         9.21681        -5.41944
   H       -7.39924         9.05326        -7.03701
   H      -11.20118         6.96986        -4.98507
   H      -11.43571         8.70540        -4.68163
   H      -10.66175         6.81226        -2.59735
   H      -12.15349         7.47503        -2.78736
   H       -9.95506         5.82523        -6.58827
   H      -10.03985         3.30980        -6.54114
   H       -7.84598         2.02149        -6.41627
   H       -6.61871         2.77291        -4.42143
   H       -5.74795         3.96344        -2.26257
   H       -5.29457         5.47534        -0.38440
   H       -7.89757         4.49084        -8.38973
   H      -10.37168         2.72332        -8.78320
   H       -9.48273         2.87335       -13.69568
   H      -11.48291         1.74247       -10.45815
   H       -6.45294         5.19924       -12.42092
   H       -7.78475         4.06442       -14.93789
   H       -5.19060         5.66225       -14.49017
   H       -2.85601         5.90411       -19.24730
   H       -7.56136         4.46649       -20.20390
   H       -3.84470         4.61465       -24.01769
   H       -2.43547         5.43502       -21.97792
*
