# ORCA input file
# SCF done       -198.935768386608          0.000784529175
! CAM-B3LYP def2-SVP def2/J RIJCOSX Grid4 TightSCF
%maxcore 5000
%tddft
    Mode sTDDFT
    Ethresh 5.0
    maxcore 5000
end

%pal
  nprocs 6
  end
* xyz 0 1
   C      -10.57738        -5.11900         5.60708
   C       -9.63962        -5.64986         4.76012
   C       -9.15172        -6.97133         4.84688
   N       -8.71624        -8.03316         4.86363
   C       -9.03953        -4.97395         3.67671
   N       -8.51059        -4.49097         2.77867
   C      -11.23112        -5.82622         6.69903
   C      -12.19421        -4.96873         7.28805
   C      -12.98233        -5.35510         8.34570
   C      -12.81638        -6.64971         8.84518
   C      -11.84968        -7.49895         8.25315
   C      -11.05071        -7.10795         7.18591
   S      -11.81511        -9.04952         9.03131
   C      -13.06915        -8.55972        10.11678
   C      -13.49911        -7.29505         9.91412
   C      -12.19776        -3.67174         6.59052
   O      -12.89285        -2.71480         6.85398
   C      -11.14020        -3.77775         5.54737
   C      -10.67036        -2.75112         4.79005
   C      -11.28027        -1.47610         4.59625
   C      -12.62511        -1.25360         4.47924
   C      -12.83358         0.09846         4.02176
   C      -14.08216         0.67097         3.74435
   N      -15.09623         1.15935         3.51856
   C      -11.61812         0.71424         3.88793
   C      -10.58801        -0.20611         4.29230
   C       -9.25523         0.08292         4.46775
   C       -8.58414         1.38102         4.16561
   C       -7.23580         1.14873         4.16378
   C       -7.00250        -0.21106         4.57035
   C       -8.20697        -0.83541         4.78863
   C       -5.73044        -0.77214         4.75097
   N       -4.68342        -1.21507         4.90800
   C       -9.21669         2.64468         4.02184
   C       -8.70415         3.68989         3.31890
   C       -9.35166         4.93829         3.17503
   N       -8.87254         5.89690         2.30699
   C       -9.72670         6.95302         2.30852
   C       -9.99253         8.18408         1.73344
   C      -11.19267         8.63604         2.31461
   N      -11.63411         7.70611         3.23375
   C      -10.76829         6.66023         3.23722
   C      -10.53613         5.40668         3.77588
   C      -11.90868         9.80153         1.96623
   C      -13.03868        10.25356         2.58094
   C      -13.80139        11.37874         2.17558
   C      -14.43370        12.21942         3.05451
   C      -14.87235        13.38297         2.33988
   C      -15.49015        14.49155         2.93599
   N      -15.99355        15.39416         3.43517
   C      -14.56802        13.24108         1.00493
   C      -13.99127        11.94948         0.80927
   C      -13.86808        11.26906        -0.38056
   C      -14.03250        11.79529        -1.75341
   C      -13.55981        10.83988        -2.61797
   C      -13.19887         9.66730        -1.86340
   C      -13.42599         9.90756        -0.53394
   C      -12.70606         8.46948        -2.39849
   N      -12.26834         7.48922        -2.80494
   C      -14.68685        12.99028        -2.16792
   C      -14.51796        13.57464        -3.38360
   C      -15.33367        14.64729        -3.80459
   C      -15.41206        15.24735        -5.02634
   C      -14.83927        14.95133        -6.32204
   C      -14.44886        13.72924        -6.80809
   C      -13.95102        13.52352        -8.11269
   N      -13.52253        13.28881        -9.15151
   C      -14.57489        12.49714        -6.13738
   N      -14.67379        11.44676        -5.68260
   C      -14.94996        16.16407        -7.12984
   C      -15.75953        17.10300        -6.43990
   C      -16.13147        16.54777        -5.12825
   O      -16.83888        17.04481        -4.28059
   C      -16.09160        18.32534        -6.97230
   C      -15.59461        18.64281        -8.23980
   C      -14.77065        17.70830        -8.91191
   C      -14.43924        16.46896        -8.37681
   S      -14.26131        18.31583       -10.45555
   C      -15.14293        19.78133       -10.19684
   C      -15.78828        19.82350        -9.01091
   H      -13.70698        -4.67760         8.77022
   H      -10.32680        -7.79048         6.77331
   H      -13.41266        -9.26104        10.85221
   H      -14.27165        -6.82139        10.49235
   H       -9.76684        -2.91625         4.21863
   H      -13.41286        -1.96733         4.62081
   H      -11.47005         1.70563         3.51024
   H       -6.45561         1.86559         3.99108
   H       -8.31971        -1.84334         5.13186
   H      -10.15441         2.78459         4.53681
   H       -7.77957         3.55704         2.77301
   H       -8.05364         5.78829         1.73317
   H       -9.43244         8.71033         0.98725
   H      -12.48965         7.77238         3.75678
   H      -11.12377         4.88366         4.50233
   H      -11.50673        10.35704         1.13013
   H      -13.34356         9.80963         3.52153
   H      -14.50912        12.09582         4.11873
   H      -14.76453        13.97565         0.25150
   H      -13.56508        10.88634        -3.69118
   H      -13.32446         9.18528         0.24993
   H      -15.45104        13.39140        -1.51651
   H      -13.73848        13.22005        -4.03931
   H      -15.97042        15.10026        -3.04937
   H      -16.71799        19.01387        -6.42671
   H      -13.80322        15.79521        -8.92640
   H      -15.12244        20.53287       -10.96198
   H      -16.38522        20.65357        -8.67900
*
