# ORCA input file
# SCF done       -217.130672239161          0.000719603411
! CAM-B3LYP def2-SVP def2/J RIJCOSX Grid4 TightSCF
%maxcore 5000
%tddft
    Mode sTDDFT
    Ethresh 5.0
    maxcore 5000
end

%pal
  nprocs 6
  end
* xyz 0 1
   C       10.82878         9.79934         3.28265
   C       10.39886        11.05049         3.62714
   F       11.28839        11.96038         4.05747
   C        9.05237        11.43160         3.54408
   C        8.13248        10.52210         3.10275
   C        8.51988         9.21674         2.73716
   C        9.89481         8.84905         2.82853
   C       10.30482         7.54319         2.47746
   C        9.36665         6.63522         2.06636
   C        7.99265         7.00655         1.97647
   C        7.57314         8.26610         2.29585
   C        7.19027         5.83588         1.57154
   O        6.00934         5.78280         1.32517
   C        8.14460         4.68871         1.63436
   C        9.48948         5.23365         1.69458
   C       10.62703         4.59570         1.27819
   C       10.60442         3.30099         0.72672
   N       10.62669         2.25387         0.25496
   C       11.91857         5.15095         1.35293
   N       12.99561         5.53807         1.44007
   C        7.67661         3.43425         1.84952
   C        8.36046         2.29574         2.37490
   C        8.07808         0.99860         2.04555
   C        9.04093         0.13366         2.68661
   C        9.04271        -1.26480         2.60022
   N        9.04963        -2.40969         2.52136
   C        9.93271         0.90322         3.38856
   C        9.54414         2.27778         3.25576
   C       10.08173         3.34549         3.93848
   C       11.46724         3.48225         4.46492
   C       11.51873         4.66015         5.16610
   C       10.23593         5.29692         5.09268
   C        9.38173         4.51830         4.33967
   C        9.91613         6.55158         5.62870
   N        9.65556         7.60008         6.01667
   C       12.58994         2.66432         4.17903
   C       12.72419         1.83805         3.10816
   C       13.82960         0.98972         2.86834
   O       13.85699         0.33980         1.65736
   C       14.94503        -0.43735         1.67901
   C       15.65753        -1.36669         0.89872
   C       15.38893        -1.72361        -0.51513
   O       16.13431        -2.39270        -1.19865
   N       14.23315        -1.20440        -0.98215
   C       16.73492        -1.74175         1.71324
   O       16.70535        -1.09253         2.91568
   C       15.62070        -0.30158         2.89747
   C       14.91363         0.62138         3.66650
   C       17.70459        -2.77453         1.49768
   C       17.41116        -3.92660         0.82905
   C       18.55073        -4.81812         0.90246
   C       18.57186        -6.12180         0.38457
   N       18.59204        -7.18628        -0.04227
   C       19.55792        -4.19338         1.57547
   C       19.11819        -2.86521         1.93945
   C       19.94121        -1.91094         2.47019
   C       21.38883        -2.09021         2.73771
   C       21.78671        -1.07441         3.54809
   C       20.66436        -0.17440         3.75044
   C       19.58242        -0.64842         3.06806
   C       20.71671         0.99824         4.51679
   N       20.76447         1.95697         5.14563
   C       22.25696        -3.07919         2.16229
   C       23.23305        -3.70375         2.85502
   C       24.11154        -4.66391         2.28060
   C       24.80084        -5.62166         2.95421
   C       25.98267        -6.29327         2.34149
   O       26.30655        -6.26484         1.17779
   C       26.68647        -6.93209         3.47045
   C       27.88405        -7.58769         3.47390
   C       28.37989        -8.11293         4.68810
   C       27.62337        -7.94164         5.88452
   C       28.12532        -8.46448         7.09206
   C       29.32196        -9.12599         7.09072
   C       30.07992        -9.30581         5.92524
   C       29.60819        -8.80324         4.74461
   F       29.80209        -9.62718         8.24188
   C       26.38380        -7.26168         5.85175
   C       25.91936        -6.77020         4.66163
   C       24.67832        -6.08241         4.32112
   C       23.52937        -6.08406         5.06940
   C       22.27214        -5.69043         4.56712
   N       21.22324        -5.43329         4.17698
   C       23.45152        -6.58856         6.38440
   N       23.34722        -6.96121         7.46475
   H       11.87283         9.53984         3.36019
   H        8.77164        12.43203         3.83286
   H        7.08959        10.79211         3.03291
   H       11.34765         7.28016         2.56737
   H        6.52898         8.53131         2.22416
   H        6.62036         3.29073         1.64132
   H        7.30461         0.65937         1.38214
   H       10.70376         0.54319         4.04241
   H       12.37929         5.07833         5.65255
   H        8.33231         4.69725         4.20527
   H       13.43224         2.78963         4.84699
   H       11.96915         1.80753         2.33598
   H       13.63011        -0.62298        -0.42685
   H       13.99039        -1.37427        -1.94396
   H       15.12842         0.97362         4.65307
   H       16.48389        -4.17685         0.35318
   H       20.49302        -4.63138         1.86284
   H       22.77621        -0.89580         3.92576
   H       18.61511        -0.19401         3.04894
   H       22.09815        -3.33002         1.12110
   H       23.33561        -3.50092         3.91332
   H       24.30056        -4.60064         1.21426
   H       28.44606        -7.70688         2.55976
   H       27.56673        -8.34794         8.00763
   H       31.01697        -9.83621         5.98556
   H       30.17415        -8.92970         3.83405
   H       25.83504        -7.13935         6.77229
*
