# ORCA input file
# SCF done       -179.323657238340          0.000439751411
! CAM-B3LYP def2-SVP def2/J RIJCOSX Grid4 TightSCF
%maxcore 5000
%tddft
    Mode sTDDFT
    Ethresh 5.0
    maxcore 5000
end

%pal
  nprocs 6
  end
* xyz 0 1
   C       -2.82920        -3.49845         5.31622
   C       -2.35981        -4.61283         5.96949
   C       -1.45338        -4.60371         7.04630
   N       -0.67261        -4.70619         7.88345
   C       -2.82785        -5.91589         5.70481
   N       -3.20894        -6.98514         5.53911
   C       -2.62534        -2.11935         5.74977
   C       -3.48402        -1.27608         5.02129
   C       -3.52107         0.08524         5.24216
   C       -2.67377         0.62025         6.20622
   C       -1.81080        -0.21252         6.92881
   C       -1.78369        -1.58585         6.71009
  Cl       -0.76378         0.46327         8.10834
  Cl       -2.68593         2.30967         6.50704
   C       -4.24968        -2.08376         4.05005
   O       -5.11722        -1.72214         3.29433
   C       -3.68840        -3.46888         4.16503
   C       -3.98410        -4.35157         3.16620
   C       -3.42917        -5.58809         2.76984
   C       -4.17799        -6.51074         1.89405
   N       -3.55769        -7.61252         1.61476
   C       -2.35144        -7.52621         2.24198
   C       -2.21934        -6.23524         2.94854
   C       -0.90781        -6.15038         3.54399
   S       -0.16487        -4.82529         4.18561
   C       -0.34533        -7.45421         3.35278
   C       -1.21763        -8.25494         2.47931
   N       -0.64940        -9.47105         2.21671
   C        0.46363        -9.49017         2.87908
   C        0.71482        -8.27384         3.67405
   C        1.76863        -8.10187         4.59648
   S        3.26770        -8.96022         4.46259
   C        3.89930        -8.17813         5.88308
   C        2.95422        -7.31033         6.44930
   C        1.73573        -7.29792         5.73901
   O        0.58706        -6.69909         6.09431
   O        3.25538        -6.60938         7.56914
   C        2.66072        -5.33348         7.77541
   C        5.20994        -8.44123         6.33564
   C        5.86234        -7.81442         7.50112
   N        7.07852        -8.20924         7.71057
   C        7.34982        -9.11893         6.72956
   C        6.18678        -9.28308         5.83651
   C        6.48526       -10.26082         4.82878
   S        5.53828       -10.86295         3.62434
   C        7.83407       -10.67787         5.12926
   C        8.34811        -9.95208         6.29897
   N        9.61555       -10.36304         6.59106
   C        9.92027       -11.25361         5.69687
   C        8.84290       -11.51636         4.72267
   C        8.80071       -12.44991         3.65025
   C        9.83700       -12.78547         2.84023
   C        9.83827       -13.78081         1.77875
   C        8.87931       -14.72847         1.55215
   C        8.93998       -15.68171         0.51136
   N        8.93214       -16.47706        -0.31508
   C        7.71951       -14.91087         2.33885
   N        6.77210       -15.13709         2.94504
   C       11.08613       -13.62608         1.03829
   C       11.85284       -12.60761         1.63385
   C       11.12455       -12.03891         2.78443
   O       11.47557       -11.12303         3.49182
   C       13.09231       -12.24720         1.14355
   C       13.58318       -12.92033         0.03229
   C       12.82597       -13.93524        -0.56891
   C       11.57754       -14.29332        -0.07295
  Cl       13.44225       -14.75528        -1.94358
  Cl       15.12037       -12.50618        -0.60568
   H       -4.18892         0.71784         4.67909
   H       -1.10360        -2.19815         7.27942
   H       -4.78654        -4.00371         2.51740
   H       -5.16545        -6.31752         1.51264
   H        1.12616       -10.33760         2.84098
   H        0.64641        -6.25959         6.95475
   H        3.40665        -4.74584         8.31171
   H        1.76622        -5.40454         8.40181
   H        2.42757        -4.83280         6.83326
   H        5.39889        -7.08880         8.14278
   H       10.86587       -11.76107         5.73050
   H        7.81941       -12.87139         3.46095
   H       13.66260       -11.46266         1.61550
   H       11.02216       -15.07543        -0.56412
*
