# ORCA input file
# SCF done       -205.437908683623          0.000991914714
! CAM-B3LYP def2-SVP def2/J RIJCOSX Grid4 TightSCF
%maxcore 5000
%tddft
    Mode sTDDFT
    Ethresh 5.0
    maxcore 5000
end

%pal
  nprocs 6
  end
* xyz 0 1
   C       -6.61358         1.88773        -3.72857
   C       -7.09426         1.80148        -2.44707
   C       -7.24008         0.58890        -1.74573
   N       -7.35664        -0.37141        -1.12771
   C       -7.59150         2.91428        -1.73900
   N       -8.05142         3.79190        -1.15890
   C       -6.39706         0.76253        -4.63064
   C       -6.43345         1.24811        -5.97109
   C       -6.30489         0.40892        -7.03969
   C       -6.11890        -0.97382        -6.81217
   C       -6.06610        -1.46196        -5.47452
   C       -6.21118        -0.57071        -4.38610
   C       -5.87383        -2.84215        -5.26276
   C       -5.74263        -3.70145        -6.31956
   C       -5.79581        -3.22031        -7.63609
   C       -5.98048        -1.88579        -7.87693
   C       -6.60725         2.71310        -5.95679
   O       -6.73151         3.46042        -6.89941
   C       -6.52509         3.09567        -4.51850
   C       -6.27575         4.38902        -4.17689
   C       -5.73386         4.90329        -2.98011
   S       -4.81926         3.97165        -1.79647
   C       -4.44156         5.34601        -0.78139
   C       -5.00801         6.45394        -1.36941
   C       -5.68843         6.21886        -2.56992
   O       -6.17397         7.40600        -3.02148
   C       -5.80100         8.35482        -2.11798
   O       -6.05265         9.50868        -2.20175
   O       -5.08594         7.79382        -1.10394
   C       -3.66509         5.24124         0.41472
   C       -3.38721         6.37999         1.14363
   C       -2.60639         6.29486         2.31008
   C       -2.16776         7.26013         3.21068
   C       -2.38337         8.73314         3.23837
   C       -1.24183         9.45165         2.47762
   N       -0.03496         9.48169         3.28698
   C       -3.73992         9.20358         2.69156
   N       -3.98312        10.56286         3.14959
   C       -1.31720         6.57849         4.15976
   C       -0.57832         7.05564         5.17833
   C        0.32945         6.17119         5.95563
   C        0.22120         4.70932         5.62229
   C       -0.54487         4.25134         4.61760
   C       -1.30327         5.15019         3.82739
   C       -2.08903         4.98609         2.70746
   C       -2.41332         3.83643         1.94742
   C       -3.17909         3.96136         0.83731
   C        0.22622         6.33525         7.44361
   C       -0.79687         6.90998         8.08492
   C       -0.84076         7.01322         9.51227
   S       -2.12107         7.85413        10.34889
   C       -1.43955         7.59670        11.94866
   C       -0.28898         6.85661        11.79002
   C        0.03639         6.54436        10.46000
   O        1.17144         5.78789        10.47588
   C        1.51149         5.61908        11.78795
   O        2.44404         4.99497        12.16181
   O        0.61762         6.25160        12.59542
   C       -2.08653         8.07418        13.11467
   C       -1.44417         8.38873        14.27363
   C       -2.05420         8.68985        15.55645
   C       -3.36646         8.48974        15.89645
   C       -3.90409         8.76732        17.17105
   N       -4.40162         8.97846        18.18347
   C       -4.35158         7.96376        15.03466
   N       -5.19685         7.52963        14.39013
   C       -1.00231         9.15874        16.44915
   C        0.23762         9.13472        15.74776
   C        0.01601         8.67561        14.36839
   O        0.82526         8.65805        13.46676
   C        1.40857         9.51478        16.33793
   C        1.39471         9.93938        17.68531
   C        0.15758         9.97449        18.39206
   C       -1.03972         9.57928        17.75293
   C        0.15421        10.40806        19.73362
   C        1.31601        10.78647        20.34973
   C        2.53357        10.74912        19.65372
   C        2.57229        10.33404        18.35004
   H       -6.34502         0.79353        -8.04797
   H       -6.16066        -0.96261        -3.38203
   H       -5.83711        -3.20824        -4.24721
   H       -5.59781        -4.75739        -6.14667
   H       -5.68984        -3.91203        -8.45840
   H       -6.02258        -1.50969        -8.88870
   H       -6.43385         5.12505        -4.95971
   H       -3.75917         7.32984         0.80057
   H       -2.32475         9.06611         4.28085
   H       -1.60869        10.45369         2.21564
   H       -1.02824         8.90377         1.55693
   H       -0.11457        10.20133         3.99825
   H        0.77362         9.69904         2.71684
   H       -4.52146         8.49003         2.99858
   H       -3.71236         9.23717         1.60101
   H       -4.18836        10.57259         4.14352
   H       -4.77909        10.96284         2.66632
   H       -0.56061         8.10589         5.42605
   H        1.35321         6.48474         5.68149
   H        0.81150         4.04089         6.22946
   H       -0.58282         3.19520         4.39421
   H       -2.04118         2.87219         2.25902
   H       -3.43974         3.10126         0.23813
   H        1.03908         5.90891         8.01517
   H       -1.63577         7.33099         7.55057
   H       -3.15829         8.20108        13.03593
   H        2.33531         9.48567        15.78442
   H       -1.96042         9.62375        18.31272
   H       -0.78527        10.43344        20.26591
   H        1.30325        11.11636        21.37767
   H        3.44060        11.05114        20.15555
   H        3.50673        10.30306        17.80919
*
