# ORCA input file
# SCF done       -138.281339789636          0.000990722375
! CAM-B3LYP def2-SVP def2/J RIJCOSX Grid4 TightSCF
%maxcore 5000
%tddft
    Mode sTDDFT
    Ethresh 5.0
    maxcore 5000
end

%pal
  nprocs 6
  end
* xyz 0 1
   C        8.01385         0.66212         0.68334
   O        9.10514         0.82451         1.44149
   C        9.54613         2.07834         1.24643
   C        8.75693         2.73960         0.36046
   C        7.74422         1.81055        -0.00487
   S        6.45700         2.02193        -1.18489
   C        5.69479         3.48302        -0.60864
   C        5.86727         4.07321         0.60036
   C        5.09569         5.29362         0.60879
   C        4.98529         6.15084         1.70787
   N        4.90504         6.86563         2.60396
   C        4.49843         5.46303        -0.61806
   C        4.82905         4.34397        -1.43934
   C        4.39644         4.09130        -2.72418
   C        3.78625         5.06411        -3.66796
   C        3.32027         4.34127        -4.74275
   C        3.64013         2.96243        -4.54065
   C        4.32232         2.81830        -3.34832
   C        3.30226         1.93427        -5.43021
   N        3.01519         1.10278        -6.16823
   C        3.83641         6.46900        -3.53133
   C        3.18143         7.35119        -4.34160
   C        3.23304         8.75279        -4.21090
   N        2.54444         9.57049        -5.08602
   C        2.75813        10.86480        -4.73581
   C        2.46921        12.17587        -5.06820
   C        3.13671        12.97619        -4.11913
   N        3.81181        12.15997        -3.23390
   C        3.60651        10.86495        -3.58891
   C        3.90351         9.55368        -3.26331
   C        3.19761        14.38055        -4.00282
   C        2.56398        15.25204        -4.83882
   C        2.61618        16.66339        -4.79244
   C        1.66027        17.48668        -5.34538
   C        1.91906        18.83083        -4.93522
   C        1.15923        19.94623        -5.30934
   N        0.52786        20.85513        -5.61612
   C        3.02847        18.84962        -4.11130
   C        3.54544        17.52797        -4.02699
   C        4.78331        17.18563        -3.51542
   C        5.57188        17.92828        -2.50638
   C        6.83765        17.40433        -2.51177
   C        6.88698        16.33162        -3.46613
   C        5.64035        16.17331        -4.03490
   C        8.02226        15.56572        -3.75350
   N        8.94659        14.92155        -3.97825
   C        5.09414        18.89321        -1.57651
   C        3.79800        19.08601        -1.23436
   C        3.34343        20.09236        -0.34306
   O        4.19064        20.95107         0.27820
   C        3.44888        21.79229         1.01073
   C        2.12014        21.51782         0.88961
   C        2.03883        20.41315         0.01150
   S        0.60897        19.59070        -0.56328
   H        7.51824        -0.28750         0.70078
   H       10.42131         2.38211         1.78543
   H        8.86163         3.74555         0.00964
   H        6.45027         3.71892         1.42848
   H        3.79800         6.23694        -0.86368
   H        2.84008         4.72028        -5.62477
   H        4.64713         1.88773        -2.92650
   H        4.46129         6.86613        -2.74676
   H        2.55635         6.96942        -5.13784
   H        1.99254         9.23919        -5.85852
   H        1.86267        12.53468        -5.87422
   H        4.38230        12.49213        -2.47512
   H        4.51331         9.19559        -2.45928
   H        3.78870        14.76614        -3.18299
   H        1.89174        14.84748        -5.58458
   H        0.82512        17.18193        -5.94807
   H        3.49932        19.72931        -3.71726
   H        7.65983        17.70166        -1.88811
   H        5.39804        15.50459        -4.83883
   H        5.85236        19.47509        -1.06755
   H        3.01445        18.46530        -1.64500
   H        3.96849        22.54140         1.57471
   H        1.30564        22.03062         1.35862
   H       -0.25019        20.40390         0.04660
*
