# ORCA input file
# SCF done       -238.140206181255          0.002284219263
! CAM-B3LYP def2-SVP def2/J RIJCOSX Grid4 TightSCF
%maxcore 5000
%tddft
    Mode sTDDFT
    Ethresh 5.0
    maxcore 5000
end

%pal
  nprocs 6
  end
* xyz 0 1
   C      -12.47832        -2.71932         0.47152
   C      -12.55118        -4.07906         0.18204
   C      -12.19805        -4.58662        -1.12113
   N      -12.21014        -5.91330        -1.36175
   C      -12.61831        -6.71420        -0.41679
   C      -13.02970        -6.20382         0.86919
   N      -12.96502        -4.93196         1.14319
   C      -13.48168        -7.11336         1.86102
   N      -13.83437        -7.88239         2.63255
   C      -12.63675        -8.11145        -0.66001
   N      -12.67436        -9.24306        -0.83039
   C      -11.80908        -3.72403        -2.15379
   C      -11.74275        -2.36301        -1.86364
   C      -12.06925        -1.86408        -0.54086
   N      -11.93291        -0.53050        -0.47902
   S      -11.46362         0.00918        -1.90142
   N      -11.40703        -1.37248        -2.70162
   C      -11.46180        -4.25410        -3.46936
   C      -10.20079        -4.05754        -4.02196
   C       -9.02187        -3.36728        -3.46352
   O       -8.87844        -2.78560        -2.41925
   N       -7.99837        -3.54693        -4.40975
   C       -8.43067        -4.25142        -5.52924
   O       -7.77106        -4.50772        -6.51138
   C       -9.83811        -4.60588        -5.25895
   C      -10.71209        -5.37439        -6.00442
   C      -11.97496        -5.57479        -5.45818
   C      -12.35075        -5.02841        -4.22807
   C      -13.74737        -5.30036        -3.84668
   O      -14.36010        -4.87484        -2.91041
   S      -14.48297        -6.38376        -5.07357
   C      -13.02010        -6.37985        -6.11792
   O      -12.95183        -6.94446        -7.16784
   C       -6.73065        -3.00639        -4.20018
   C       -5.64777        -3.38043        -4.88969
   C       -4.32344        -2.80672        -4.81175
   C       -3.45666        -3.08415        -5.84757
   C       -2.16310        -2.53981        -5.85804
   C       -1.13193        -2.63868        -6.79022
   C       -1.12682        -3.38227        -8.07882
   C       -1.47352        -4.87484        -7.89062
   N       -0.74150        -5.65576        -8.86758
   C       -2.06838        -2.71097        -9.09898
   N       -1.43161        -1.50877        -9.60264
   C       -0.04762        -1.83686        -6.28538
   C        1.12901        -1.48631        -6.84342
   C        1.99534        -0.47125        -6.17948
   C        1.70616        -0.25814        -4.73217
   C        0.51579        -0.59955        -4.19616
   C       -0.43037        -1.31147        -4.97103
   C       -1.73797        -1.71719        -4.73783
   C       -2.64087        -1.45562        -3.68645
   C       -3.89970        -1.97480        -3.73283
   C        1.51469         0.75182        -6.94194
   C        1.91521         1.10546        -8.16073
   C        1.34493         2.24962        -8.85184
   C       -0.01901         2.57061        -8.79844
   C       -1.16275         1.82630        -8.22486
   O       -1.19069         0.73246        -7.70680
   N       -2.28713         2.62270        -8.43628
   C       -1.98130         3.79668        -9.15039
   O       -2.78151         4.63566        -9.45983
   C       -0.52938         3.72499        -9.41189
   C        0.26370         4.59423       -10.13642
   C        1.60737         4.25563       -10.24117
   C        2.13934         3.12272        -9.61758
   C        3.58915         2.95708        -9.81699
   O        4.30642         2.10258        -9.38297
   S        4.19594         4.28883       -10.86027
   C        2.57932         5.06093       -11.00213
   O        2.37525         6.05955       -11.62296
   C       -3.57176         2.39021        -7.96541
   C       -4.04548         1.21586        -7.52700
   C       -5.36807         1.04102        -6.98227
   C       -6.08586         2.06476        -6.32341
   C       -7.42189         1.84130        -5.81529
   N       -8.09562         2.84852        -5.21653
   C       -7.51776         4.01139        -5.09768
   C       -6.16257         4.21490        -5.54112
   N       -5.49446         3.25555        -6.12690
   C       -5.52847         5.46271        -5.31808
   N       -5.04790         6.48357        -5.12142
   C       -8.22567         5.08558        -4.49834
   N       -8.76395         5.97909        -4.02651
   C       -8.05524         0.61016        -5.94354
   C       -7.35842        -0.40466        -6.58124
   C       -6.01576        -0.20026        -7.08235
   N       -5.54835        -1.30610        -7.68183
   S       -6.66274        -2.45124        -7.61162
   N       -7.79931        -1.64630        -6.83816
   H      -12.74518        -2.35636         1.44984
   H      -10.43685        -5.80719        -6.95307
   H       -6.72757        -2.25442        -3.42321
   H       -5.75324        -4.16423        -5.62646
   H       -3.78567        -3.70967        -6.66269
   H       -0.11997        -3.34881        -8.50322
   H       -2.56514        -5.01308        -7.95007
   H       -1.14616        -5.19942        -6.89889
   H       -1.04349        -5.43039        -9.80903
   H       -0.87881        -6.64830        -8.71874
   H       -3.04659        -2.52443        -8.62686
   H       -2.22130        -3.38160        -9.95058
   H       -1.26215        -0.86207        -8.83630
   H       -2.03108        -1.04814       -10.27899
   H        1.41917        -1.81543        -7.83000
   H        3.05558        -0.64737        -6.37289
   H        2.44936         0.27494        -4.16048
   H        0.28304        -0.36324        -3.16803
   H       -2.32930        -0.83980        -2.85565
   H       -4.59250        -1.77938        -2.92923
   H        0.74482         1.31023        -6.43175
   H        2.72597         0.59327        -8.65833
   H       -0.13180         5.48056       -10.60610
   H       -4.18333         3.28132        -8.00359
   H       -3.45315         0.31506        -7.58804
   H       -9.06004         0.47218        -5.58165
*
