# ORCA input file
# SCF done       -166.528766317110          0.000482658234
! CAM-B3LYP def2-SVP def2/J RIJCOSX Grid4 TightSCF
%maxcore 5000
%tddft
    Mode sTDDFT
    Ethresh 5.0
    maxcore 5000
end

%pal
  nprocs 6
  end
* xyz 0 1
   C       -1.68345        -1.94510         0.87746
   S       -2.66942        -1.13290         2.03794
   C       -1.65411        -1.57777         3.39204
   C       -0.58506        -2.33032         2.92628
   C       -0.62192        -2.52872         1.50588
   N        0.47030        -3.28054         1.20254
   N        1.18236        -3.56882         2.31011
   C        0.58631        -3.02317         3.33588
   C       -1.98264        -1.17637         4.71519
   C       -3.12576        -0.48070         5.01815
   C       -3.51399        -0.08967         6.30039
   C       -2.72778        -0.49603         7.47835
   C       -1.55414        -1.15725         7.41346
   S       -0.80758        -1.64647         5.94468
   C       -3.48053        -0.05679         8.60098
   C       -4.64745         0.57043         8.16467
   C       -5.43814         1.03291         9.24021
   C       -4.86560         0.74871        10.43860
   S       -3.35062        -0.08412        10.31618
   C       -4.66871         0.58051         6.72609
   C       -5.70746         1.17543         5.95318
   C       -5.57766         1.67918         4.70654
   C       -6.64587         2.24421         3.92099
   C       -7.96601         1.92915         4.14454
   C       -8.98379         2.48405         3.33876
   C      -10.36304         2.32021         3.33258
   C      -11.26418         1.53082         4.23173
   C      -11.27804         0.03217         3.86963
   N       -9.98059        -0.58201         4.08473
   C      -10.94207         1.72353         5.72031
   N      -10.88814         3.14353         6.05129
   C      -10.87304         3.14461         2.26436
   C      -12.12076         3.30127         1.78446
   C      -12.42807         4.29154         0.71490
   C      -11.23089         4.97900         0.13898
   C       -9.97913         4.75264         0.57686
   C       -9.74390         3.84521         1.63834
   C       -8.60234         3.41911         2.28099
   C       -7.23484         3.71965         2.06976
   C       -6.29545         3.14008         2.85430
   C      -13.35723         5.28584         1.36975
   C      -14.61362         5.48982         0.97066
   C      -15.57723         6.35415         1.60876
   C      -15.54617         6.72292         2.92369
   C      -16.50177         7.52928         3.55759
   C      -17.60823         8.11056         2.77524
   C      -17.84276         7.86841         1.46900
   S      -16.86357         6.84089         0.50729
   C      -18.34316         8.91290         3.68803
   C      -17.76126         8.82911         4.94839
   C      -18.45909         9.59513         5.90855
   C      -19.52898        10.22805         5.36069
   S      -19.73805         9.92037         3.66842
   C      -16.61382         7.95233         4.89034
   C      -15.88299         7.66894         6.07201
   C      -14.89949         6.77034         6.33087
   C      -14.34305         6.62531         7.62760
   S      -14.89927         7.60564         8.97873
   C      -13.83855         6.87458        10.11122
   C      -13.07516         5.91267         9.50364
   C      -13.36023         5.77191         8.10270
   N      -12.53235         4.79493         7.65046
   N      -11.75314         4.32547         8.64374
   C      -12.04998         4.95738         9.74664
   H       -1.95667        -1.93232        -0.15680
   H        0.77577        -3.62161         0.30814
   H        0.99390        -3.13298         4.31985
   H       -3.78853        -0.26100         4.19190
   H       -0.98954        -1.42990         8.29117
   H       -6.37665         1.54739         9.13891
   H       -5.23900         0.97898        11.41736
   H       -6.65898         1.26886         6.46154
   H       -4.59293         1.72951         4.26094
   H       -8.22325         1.21818         4.91266
   H      -12.28250         1.90206         4.07316
   H      -11.63497        -0.06411         2.82877
   H      -11.99666        -0.47501         4.52058
   H       -9.30652        -0.20213         3.42804
   H      -10.03575        -1.58220         3.92815
   H      -10.01801         1.18425         5.95968
   H      -11.74601         1.27896         6.31496
   H      -10.17800         3.59127         5.47753
   H      -10.60549         3.24636         7.02333
   H      -12.96858         2.76657         2.19173
   H      -12.98191         3.79645        -0.09446
   H      -11.43128         5.68048        -0.65673
   H       -9.13835         5.26191         0.12740
   H       -6.95865         4.39963         1.27663
   H       -5.24692         3.35265         2.69944
   H      -12.94070         5.80721         2.21905
   H      -14.97075         4.99525         0.07499
   H      -14.72332         6.34581         3.51208
   H      -18.67719         8.30054         0.93953
   H      -18.19215         9.67957         6.94664
   H      -20.23290        10.87344         5.84907
   H      -16.20806         8.25985         6.92190
   H      -14.50854         6.10504         5.57484
   H      -13.84665         7.19545        11.13256
   H      -12.37593         4.39627         6.73009
   H      -11.54645         4.73297        10.66504
*
