# ORCA input file
# SCF done       -212.835782758748          0.001109971815
! CAM-B3LYP def2-SVP def2/J RIJCOSX Grid4 TightSCF
%maxcore 5000
%tddft
    Mode sTDDFT
    Ethresh 5.0
    maxcore 5000
end

%pal
  nprocs 6
  end
* xyz 0 1
   C        4.45608       -10.92165        -0.40208
   C        3.61847       -10.69676         0.65199
   C        2.84300       -11.70317         1.27121
   N        2.18202       -12.47689         1.79898
   C        3.47528        -9.44495         1.28504
   N        3.34923        -8.45262         1.84788
   C        4.80393       -12.21582        -0.97013
   C        5.97204       -12.08317        -1.74725
   C        6.54051       -13.16598        -2.38887
   C        5.93043       -14.40713        -2.25728
   C        4.76123       -14.54439        -1.49351
   C        4.19328       -13.45349        -0.84597
  Cl        4.01490       -16.07961        -1.35240
  Cl        6.60790       -15.77539        -3.03457
   C        6.40795       -10.67475        -1.76245
   O        7.38452       -10.19109        -2.27100
   C        5.30784        -9.93534        -1.05571
   C        5.16587        -8.61570        -1.25575
   C        4.03916        -7.75824        -0.93499
   C        4.25177        -6.54772        -0.27392
   C        5.52028        -5.99070         0.25323
   O        6.62854        -6.44817         0.21438
   N        5.17597        -4.76039         0.83377
   C        3.81031        -4.50873         0.76707
   O        3.24072        -3.54218         1.20951
   C        3.22058        -5.67083         0.05467
   C        1.90320        -5.93574        -0.26910
   C        1.67806        -7.12405        -0.95481
   C        2.69958        -8.01646        -1.28437
   C        2.23465        -9.19958        -2.04132
   O        2.88671       -10.11076        -2.46481
   S        0.46109        -9.11045        -2.25676
   C        0.32592        -7.53722        -1.39160
   O       -0.70139        -6.96139        -1.22750
   C        6.14192        -3.93332         1.41027
   C        5.94836        -2.62399         1.60623
   C        6.89256        -1.71071         2.16606
   O        8.11934        -2.08983         2.58032
   C        8.77221        -0.98547         2.97901
   C        7.99623         0.12528         2.84505
   C        6.76356        -0.33990         2.33274
   S        5.35012         0.59600         1.85564
   C        4.10800        -0.28417         2.73904
   C        4.20824        -0.59117         4.09889
   C        5.21393        -0.16314         5.09831
   O        6.18986         0.52175         4.94750
   N        4.77774        -0.69089         6.32319
   C        3.58409        -1.42124         6.19276
   O        3.01894        -1.97735         7.09061
   C        3.22199        -1.33100         4.75737
   C        2.10452        -1.82608         4.11137
   C        1.98903        -1.50379         2.76477
   C        2.93667        -0.72961         2.10213
   C        2.65583        -0.52269         0.66901
   O        3.29957         0.10064        -0.11942
   S        1.14811        -1.39773         0.23835
   C        0.89916        -2.01321         1.90185
   O        0.00190        -2.73109         2.21631
   C        5.31408        -0.42486         7.56803
   C        6.53342         0.09273         7.79387
   C        7.01428         0.44584         9.09038
   C        6.28029         0.98580        10.10099
   C        6.79078         1.35048        11.41464
   C        7.89021         0.81697        12.02719
   C        8.32540         1.17646        13.32126
   N        8.72641         1.43443        14.36458
   C        8.70766        -0.18729        11.46280
   N        9.40131        -1.01293        11.07001
   C        5.86859         2.32016        11.99244
   C        4.77463         2.47785        11.12319
   C        4.93365         1.60113         9.94393
   O        4.14525         1.47327         9.03472
   C        3.73760         3.34308        11.40962
   C        3.79336         4.07070        12.59158
   C        4.88152         3.92223        13.46161
   C        5.92286         3.04827        13.17029
  Cl        4.94067         4.83454        14.91361
  Cl        2.52363         5.15543        12.98520
   H        7.43668       -13.04832        -2.97755
   H        3.28835       -13.58953        -0.27618
   H        6.00645        -8.11769        -1.73086
   H        1.09289        -5.27176        -0.01179
   H        7.06388        -4.44281         1.65015
   H        5.01966        -2.17354         1.29669
   H        9.77334        -1.11570         3.33937
   H        8.24295         1.13595         3.08942
   H        1.36152        -2.42199         4.61629
   H        4.65582        -0.72825         8.37044
   H        7.21743         0.24542         6.97134
   H        8.08404         0.34524         9.23167
   H        2.90585         3.44796        10.73106
   H        6.74764         2.96351        13.85895
*
