# ORCA input file
# SCF done       -237.445266820708          0.000741776052
! CAM-B3LYP def2-SVP def2/J RIJCOSX Grid4 TightSCF
%maxcore 5000
%tddft
    Mode sTDDFT
    Ethresh 5.0
    maxcore 5000
end

%pal
  nprocs 6
  end
* xyz 0 1
   C        4.68287         8.04470        -0.98366
   C        3.98159         7.04749        -0.36500
   C        3.80535         5.76213        -0.92227
   N        3.62551         4.69987        -1.31805
   C        3.36861         7.11907         0.90154
   N        2.84507         7.05036         1.92162
   C        5.38573         7.89731        -2.25038
   C        6.39032         8.90528        -2.33558
   C        7.21617         8.99655        -3.41965
   C        7.05001         8.09179        -4.49297
   C        6.01491         7.11262        -4.43231
   C        5.19156         7.02405        -3.28764
   C        5.82963         6.24752        -5.53039
   C        6.63656         6.33374        -6.63173
   C        7.66576         7.28584        -6.68476
   C        7.86756         8.14615        -5.63939
   C        6.30283         9.78411        -1.15252
   O        7.02408        10.70337        -0.85297
   C        5.05669         9.34821        -0.44424
   C        4.39850        10.18546         0.38161
   C        3.02193         9.97723         0.79581
   C        2.57485        10.22445         2.10129
   C        3.44675        10.88914         3.11150
   O        4.06386        11.90237         2.89286
   C        3.40573        10.24294         4.45564
   C        2.84655        10.76215         5.57572
   S        3.02233         9.71446         6.93441
   C        3.87352         8.56948         5.99086
   C        4.00099         8.96107         4.68695
   C        4.77138         8.30940         3.61806
   O        5.13856         8.96319         2.65620
   C        5.10643         6.87675         3.75815
   C        6.29949         6.42286         3.19831
   C        6.63761         5.08534         3.26562
   C        5.77661         4.18519         3.87299
   C        4.57521         4.62546         4.40531
   C        4.23737         5.96491         4.35301
   C        1.27803         9.85691         2.45248
   C        0.42209         9.26473         1.54580
   C        0.84429         9.03776         0.23370
   C        2.12998         9.43581        -0.12029
   C        0.05527         8.31696        -0.74005
   S        0.91645         7.58725        -2.08756
   C       -0.54497         6.91824        -2.68688
   C       -1.63395         7.25225        -1.88313
   C       -1.28680         8.03766        -0.77280
   S       -3.13173         6.60083        -2.49735
   C       -2.27581         5.88362        -3.83761
   C       -2.66234         5.12318        -4.95063
   C       -1.59550         4.79662        -5.75024
   S       -0.08446         5.43753        -5.12159
   C       -0.90720         6.14112        -3.79146
   C       -1.55329         4.06324        -6.99921
   C       -2.62120         3.28291        -7.47025
   C       -3.88606         3.03390        -6.71509
   O       -3.97751         2.26356        -5.78860
   C       -5.04958         3.76127        -7.25937
   C       -5.01892         5.01106        -7.81229
   S       -6.57915         5.57197        -8.23146
   C       -7.29627         4.10680        -7.67186
   C       -6.37695         3.23859        -7.17831
   C       -6.63802         1.82535        -6.76636
   O       -6.20637         0.91749        -7.44155
   C       -7.44809         1.62497        -5.55013
   C       -7.74810         2.67064        -4.67877
   C       -8.50214         2.42931        -3.54603
   C       -8.96496         1.15087        -3.27524
   C       -8.66473         0.10479        -4.13427
   C       -7.90555         0.33843        -5.26326
   C       -2.51751         2.63937        -8.69931
   C       -1.37840         2.73057        -9.47208
   C       -0.29151         3.49054        -9.02215
   C       -0.40785         4.13664        -7.78682
   C        0.97469         3.64844        -9.69225
   C        1.42217         3.37287       -10.94443
   C        2.80674         3.61603       -11.35833
   C        3.84549         4.04134       -10.57385
   C        5.16190         4.24631       -11.04445
   N        6.25362         4.44495       -11.33854
   C        3.81752         4.35247        -9.19658
   N        3.93436         4.63590        -8.08889
   C        2.91394         3.30887       -12.77774
   C        1.64283         2.87385       -13.24389
   C        0.67331         2.88559       -12.13777
   O       -0.49602         2.58018       -12.22665
   C        1.42867         2.51709       -14.54436
   C        2.50131         2.58010       -15.46010
   C        3.77918         3.01650       -15.00409
   C        3.96876         3.37891       -13.65160
   C        4.84332         3.07952       -15.92738
   C        4.65582         2.72861       -17.23637
   C        3.39726         2.29821       -17.68345
   C        2.34295         2.22519       -16.81418
   H        7.97946         9.75926        -3.46571
   H        4.40750         6.28304        -3.26731
   H        5.03737         5.51552        -5.49134
   H        6.48013         5.66897        -7.46779
   H        8.29541         7.33726        -7.56060
   H        8.65471         8.88521        -5.67827
   H        4.91095        11.07873         0.71285
   H        2.33079        11.69534         5.68566
   H        4.26593         7.68739         6.45672
   H        6.95233         7.13878         2.72023
   H        7.56756         4.74156         2.83755
   H        6.03555         3.13774         3.91922
   H        3.89528         3.91837         4.85695
   H        3.28188         6.29753         4.72681
   H        0.93763        10.03509         3.46247
   H       -0.56157         8.95178         1.85845
   H        2.45282         9.30866        -1.14450
   H       -1.99192         8.39353        -0.04486
   H       -3.67977         4.84496        -5.14815
   H       -4.16290         5.63956        -7.96230
   H       -8.35506         3.96654        -7.76244
   H       -7.38000         3.66574        -4.88025
   H       -8.72934         3.23939        -2.86886
   H       -9.55639         0.96922        -2.38994
   H       -9.02108        -0.89149        -3.91879
   H       -7.65331        -0.46031        -5.94465
   H       -3.34687         2.03640        -9.03927
   H       -1.33282         2.21679       -10.41622
   H        0.42465         4.72618        -7.42876
   H        1.71315         4.09822        -9.03757
   H        0.45120         2.19101       -14.86765
   H        4.94839         3.70648       -13.34273
   H        5.81051         3.41084       -15.57891
   H        5.47674         2.78057       -17.93566
   H        3.26768         2.02518       -18.71998
   H        1.37157         1.89485       -17.15190
*
