# ORCA input file
# SCF done       -225.095272506036          0.000735790355
! CAM-B3LYP def2-SVP def2/J RIJCOSX Grid4 TightSCF
%maxcore 5000
%tddft
    Mode sTDDFT
    Ethresh 5.0
    maxcore 5000
end

%pal
  nprocs 6
  end
* xyz 0 1
   C       -3.67659         2.40390        -1.57407
   C       -3.79902         1.92794        -0.29299
   C       -4.31317         0.65606         0.03018
   N       -4.70395        -0.37216         0.36004
   C       -3.42785         2.62951         0.87175
   N       -3.14331         3.13921         1.86114
   C       -4.10539         1.71181        -2.78434
   C       -3.83857         2.54833        -3.90497
   C       -4.15024         2.17369        -5.17912
   C       -4.76214         0.91864        -5.39557
   C       -5.02934         0.07274        -4.28115
   C       -4.69051         0.48855        -2.97231
   C       -5.63849        -1.17764        -4.50928
   C       -5.97070        -1.57459        -5.77620
   C       -5.70898        -0.73993        -6.87257
   C       -5.11788         0.48037        -6.68599
   C       -3.23067         3.80459        -3.44582
   O       -2.78528         4.69963        -4.13730
   C       -3.17190         3.70226        -1.96486
   C       -2.56253         4.62255        -1.14849
   C       -2.25888         5.94983        -1.50128
   S       -0.85430         6.71287        -0.81761
   C       -1.00611         8.11352        -1.81971
   C       -2.16459         8.02150        -2.62667
   C       -2.90403         6.82858        -2.38713
   C       -4.16617         6.66542        -3.00949
   C       -5.15352         5.65577        -2.61006
   O       -5.79139         4.94241        -3.33836
   C       -5.56795         5.68825        -1.10047
   F       -4.77080         6.41023        -0.30358
   F       -6.78445         6.25095        -1.02026
   F       -5.66190         4.46652        -0.56978
   C       -4.55285         7.56423        -3.98400
   C       -3.77378         8.68810        -4.27753
   C       -2.61817         8.94218        -3.58404
   C       -0.07663         9.16770        -1.79308
   C        0.96106         9.26166        -0.91108
   C        1.89161        10.31773        -0.84363
   N        1.94206        11.36370        -1.74363
   C        2.93378        12.20999        -1.36745
   C        3.57164        13.39464        -1.69426
   C        4.54603        13.59726        -0.69970
   N        4.49887        12.55349         0.20425
   C        3.52498        11.68926        -0.18009
   C        2.88007        10.50490         0.14035
   C        5.45309        14.66453        -0.54430
   C        5.57168        15.69864        -1.42443
   C        6.42332        16.80615        -1.28035
   S        7.21248        17.20837         0.20229
   C        7.75969        18.75751        -0.38365
   C        7.39517        18.92332        -1.74080
   C        6.67269        17.80122        -2.24707
   C        6.26012        17.78165        -3.59907
   C        5.70506        16.59789        -4.26878
   O        4.69632        16.54863        -4.92257
   C        6.65586        15.35153        -4.30525
   F        7.67773        15.39322        -3.44134
   F        6.00217        14.20433        -4.08992
   F        7.19814        15.27507        -5.52998
   C        6.46658        18.90113        -4.38316
   C        7.18296        19.99256        -3.88464
   C        7.67138        19.99968        -2.60204
   C        8.39769        19.59614         0.54177
   C        8.65655        20.93428         0.41143
   C        9.28203        21.67322         1.42669
   C        9.53973        23.02108         1.34691
   C       10.14108        23.85276         2.36575
   C       10.58576        23.45694         3.60415
   C       11.16916        24.32479         4.54947
   N       11.65247        24.97256         5.36540
   C       10.53159        22.14607         4.11780
   N       10.52304        21.10823         4.61133
   C       10.19391        25.21954         1.85273
   C        9.64919        25.23075         0.53739
   C        9.23274        23.86703         0.16999
   O        8.74750        23.52546        -0.89301
   C        9.55987        26.37567        -0.19942
   C       10.01852        27.59069         0.35726
   C       10.56446        27.58964         1.67271
   C       10.64553        26.38549         2.41083
   C       11.01764        28.80705         2.21960
   C       10.93601        29.97034         1.50331
   C       10.39810        29.96989         0.20797
   C        9.94913        28.80496        -0.35289
   H       -3.94236         2.83163        -6.00958
   H       -4.90670        -0.17421        -2.14955
   H       -5.83979        -1.81622        -3.66164
   H       -6.43807        -2.53414        -5.94018
   H       -5.97810        -1.06834        -7.86553
   H       -4.91433         1.12802        -7.52635
   H       -2.22113         4.30554        -0.17070
   H       -5.49716         7.41550        -4.48492
   H       -4.11350         9.37615        -5.03585
   H       -2.05709         9.84315        -3.77714
   H       -0.24040         9.95434        -2.51615
   H        1.08248         8.48121        -0.17254
   H        1.36775        11.44931        -2.56315
   H        3.38064        14.03717        -2.52882
   H        5.10188        12.46514         1.00410
   H        3.05981         9.84645         0.96595
   H        6.09655        14.64812         0.32645
   H        4.94498        15.70053        -2.30633
   H        6.12896        18.89551        -5.40811
   H        7.37569        20.83175        -4.53430
   H        8.26997        20.83028        -2.27103
   H        8.66497        19.12402         1.48144
   H        8.34451        21.47491        -0.46469
   H        9.56698        21.13755         2.32284
   H        9.14167        26.35534        -1.19503
   H       11.06397        26.42097         3.40398
   H       11.43105        28.80275         3.21757
   H       11.28569        30.89783         1.93156
   H       10.34099        30.89670        -0.34328
   H        9.53353        28.79794        -1.35013
*
