# ORCA input file
# SCF done       -229.617903648083          0.000750842210
! CAM-B3LYP def2-SVP def2/J RIJCOSX Grid4 TightSCF
%maxcore 5000
%tddft
    Mode sTDDFT
    Ethresh 5.0
    maxcore 5000
end

%pal
  nprocs 6
  end
* xyz 0 1
   C       -2.95094         4.27274        -5.56192
   C       -3.56513         3.73643        -4.46502
   C       -4.95207         3.48401        -4.37723
   N       -6.06950         3.26211        -4.24370
   C       -2.88700         3.32040        -3.30381
   N       -2.37970         2.94950        -2.34248
   C       -3.58255         4.55914        -6.84137
   C       -2.57203         4.78399        -7.82461
   C       -2.88215         5.03559        -9.13099
   C       -4.23865         5.08169        -9.52096
   C       -5.25446         4.87907        -8.54065
   C       -4.90544         4.61901        -7.19669
   C       -6.60532         4.93463        -8.94175
   C       -6.93834         5.17325       -10.24725
   C       -5.93771         5.36937       -11.21145
   C       -4.61675         5.32519       -10.85610
   C       -1.25098         4.70747        -7.19241
   O       -0.15733         4.79434        -7.69378
   C       -1.52656         4.52758        -5.72430
   C       -0.50553         4.71937        -4.87683
   C       -0.41147         4.78981        -3.43322
   C        0.55442         4.01237        -2.79120
   C        1.41531         2.97734        -3.38262
   O        1.47298         2.57608        -4.51723
   N        2.24834         2.53500        -2.34389
   C        1.98527         3.19547        -1.13558
   O        2.59534         3.04879        -0.11434
   C        0.85334         4.11567        -1.43428
   C        0.18307         5.00723        -0.61820
   C       -0.81114         5.76087        -1.23184
   C       -1.11585         5.66232        -2.58908
   C       -2.20449         6.55555        -3.02772
   O       -2.67679         6.67067        -4.11855
   S       -2.81352         7.47249        -1.60881
   C       -1.58983         6.78597        -0.50544
   O       -1.42880         7.15242         0.62036
   C        3.34187         1.73737        -2.66742
   C        4.45151         1.55429        -1.94223
   C        5.66316         1.07463        -2.55287
   S        6.82465         0.16144        -1.64176
   C        7.90158         0.12928        -2.99282
   C        9.18065        -0.38989        -3.22429
   C        9.60774        -0.09937        -4.49838
   C       10.86698        -0.41185        -5.18999
   O       11.09796        -0.01777        -6.30061
   O       11.75341        -1.16366        -4.51490
   S        8.44775         0.80661        -5.42735
   C        7.36095         0.79634        -4.09367
   C        6.08368         1.34187        -3.85035
   C        5.31154         2.14757        -4.79312
   C        4.82208         3.40635        -4.43065
   C        5.05063         4.17187        -3.18613
   O        5.87737         4.03789        -2.32889
   N        4.06633         5.18366        -3.18558
   C        3.35304         5.21899        -4.39215
   O        2.44330         5.95906        -4.64774
   C        3.89525         4.10307        -5.20647
   C        3.49724         3.65580        -6.45582
   C        4.06236         2.45803        -6.87347
   C        4.91042         1.70021        -6.06129
   C        5.23357         0.36731        -6.60824
   O        5.83540        -0.51761        -6.07652
   S        4.52543         0.21925        -8.24955
   C        3.74381         1.83661        -8.17906
   O        3.09092         2.29246        -9.06379
   C        3.87204         5.96109        -2.05817
   C        2.86149         6.82369        -1.84971
   C        2.76849         7.51509        -0.60711
   C        1.76457         8.36111        -0.25619
   C        1.64591         9.11669         0.98523
   C        2.46621         9.03266         2.07712
   C        2.30101         9.79848         3.25231
   N        2.23334        10.39295         4.23157
   C        3.58628         8.18298         2.20305
   N        4.50994         7.52527         2.38366
   C        0.47705         9.97758         0.86755
   C       -0.13672         9.74804        -0.39769
   C        0.59652         8.69908        -1.10979
   O        0.26988         8.16436        -2.15517
   C       -1.26395        10.41485        -0.78752
   C       -1.84533        11.35370         0.09098
   C       -1.24045        11.58794         1.36009
   C       -0.07107        10.88756         1.73301
   C       -1.83230        12.52566         2.23055
   C       -2.96746        13.19816         1.86726
   C       -3.56342        12.96409         0.61869
   C       -3.01425        12.06149        -0.25117
   H       -2.10008         5.19554        -9.85818
   H       -5.69546         4.48039        -6.47551
   H       -7.37198         4.78021        -8.19691
   H       -7.97531         5.21124       -10.54511
   H       -6.21911         5.55582       -12.23691
   H       -3.84234         5.47551       -11.59378
   H        0.45833         4.85669        -5.36670
   H        0.40641         5.11872         0.43081
   H        3.24733         1.34064        -3.67004
   H        4.50299         1.85266        -0.90511
   H        9.73996        -0.93144        -2.48150
   H       11.43964        -1.42711        -3.64094
   H        2.77253         4.17780        -7.06157
   H        4.62110         5.76670        -1.29829
   H        2.11270         7.01054        -2.60394
   H        3.57880         7.34315         0.08934
   H       -1.70878        10.22781        -1.75364
   H        0.35994        11.08739         2.70095
   H       -1.37177        12.70119         3.19160
   H       -3.41349        13.91410         2.54113
   H       -4.46004        13.50225         0.35013
   H       -3.46916        11.87407        -1.21263
*
