# ORCA input file
# SCF done       -165.131957755896          0.000835612701
! CAM-B3LYP def2-SVP def2/J RIJCOSX Grid4 TightSCF
%maxcore 5000
%tddft
    Mode sTDDFT
    Ethresh 5.0
    maxcore 5000
end

%pal
  nprocs 6
  end
* xyz 0 1
   N        0.17233        -1.51536         6.31291
   C       -1.18013        -1.71633         6.02594
   O       -2.07769        -1.05593         6.47086
   C       -1.21060        -2.85988         5.09383
   C        0.04738        -3.28094         4.85723
   C        0.98724        -2.40320         5.66396
   O        2.18458        -2.46690         5.75826
   C        0.56447        -4.36989         4.08496
   C        0.15211        -5.69045         4.03467
   N       -0.99998        -6.27757         4.59813
   O       -1.01322        -7.49118         4.69083
   O       -1.91394        -5.55307         4.94978
   C        1.15526        -6.47880         3.36377
   C        2.19173        -5.67201         3.03012
   C        1.87540        -4.32799         3.42976
   C        2.56725        -3.17398         3.12604
   C        1.98818        -1.89096         2.88833
   C        2.94403        -1.07610         2.36711
   C        4.19402        -1.77871         2.30737
   N        5.33585        -1.11997         1.82559
   O        5.25527         0.08567         1.66421
   O        6.34355        -1.76440         1.56541
   C        4.01104        -3.07575         2.80924
   C        4.87825        -4.09198         3.23965
   C        6.23366        -4.19723         3.04029
   C        6.97695        -5.26393         3.56778
   N        8.33104        -5.41226         3.38171
   C        9.19126        -4.53854         2.61584
   C        9.06820        -4.79070         1.11628
   C        8.82847        -6.56721         3.99650
   O        9.99396        -6.90540         3.96973
   C        7.66384        -7.17155         4.62031
   C        6.55207        -6.35679         4.34924
   C        5.39131        -6.96681         4.97370
   O        4.22226        -6.64382         5.00612
   N        5.89433        -8.12856         5.58568
   C        5.03729        -8.99451         6.36268
   C        5.16043        -8.71659         7.85761
   C        7.24283        -8.26725         5.39308
   C        7.99402        -9.35468         5.88995
   C        9.32672        -9.49410         5.64748
   C       10.10910       -10.58327         6.10146
   S       11.80376       -10.61423         5.64231
   C       12.06571       -12.11722         6.46477
   C       10.91077       -12.57322         7.04698
   C        9.80324       -11.70628         6.85953
   C        8.62102       -12.27925         7.51143
   O        7.49123       -11.85019         7.53227
   C        9.07835       -13.56729         8.17693
   C       10.51107       -13.80987         7.72952
   O       11.14121       -14.82777         7.84606
   N       13.30934       -12.70745         6.51805
   C       14.21713       -12.72290         5.45128
   O       14.03902       -12.17644         4.39995
   C       15.37273       -13.52127         5.93791
   C       15.15782       -13.88067         7.20132
   C       13.84857       -13.33863         7.65667
   O       13.35193       -13.33960         8.74271
   H        0.50864        -0.81625         6.95838
   H       -2.12534        -3.25134         4.69281
   H        1.05023        -7.53051         3.17867
   H        3.05113        -5.95084         2.45384
   H        0.94648        -1.65820         2.99982
   H        2.82643        -0.06247         2.03147
   H        4.40210        -4.86541         3.82681
   H        6.75194        -3.45588         2.45213
   H       10.21129        -4.75551         2.94425
   H        8.95432        -3.49833         2.84983
   H        9.30957        -5.82616         0.88861
   H        9.76113        -4.14667         0.58350
   H        8.06145        -4.57729         0.76645
   H        5.27859       -10.03736         6.14629
   H        4.01603        -8.78663         6.03267
   H        6.17315        -8.90451         8.20503
   H        4.48197        -9.36525         8.40320
   H        4.90062        -7.68241         8.06992
   H        7.47636       -10.10397         6.47064
   H        9.84922        -8.74469         5.06557
   H        8.42240       -14.40546         7.93594
   H        9.05013       -13.44892         9.26342
   H       16.21718       -13.73230         5.30869
   H       15.78706       -14.45180         7.85806
*
