# ORCA input file
# SCF done       -239.020438181312          0.000794631172
! CAM-B3LYP def2-SVP def2/J RIJCOSX Grid4 TightSCF
%maxcore 5000
%tddft
    Mode sTDDFT
    Ethresh 5.0
    maxcore 5000
end

%pal
  nprocs 6
  end
* xyz 0 1
   C        2.78222         8.33143         1.49393
   C        1.76409         9.09001         0.98716
   C        0.72973         9.64273         1.77410
   N       -0.13463        10.12357         2.35534
   C        1.64837         9.48130        -0.36098
   N        1.50246         9.87197        -1.43176
   C        3.03709         8.06374         2.89923
   C        4.38952         7.63182         3.05031
   C        4.90859         7.32121         4.27494
   C        4.08554         7.42398         5.41850
   C        2.72893         7.83846         5.27091
   C        2.21794         8.15678         3.99308
   C        1.91588         7.92340         6.41988
   C        2.41662         7.61747         7.65585
   C        3.75228         7.21227         7.80046
   C        4.56881         7.11809         6.70617
   C        5.03226         7.55938         1.73037
   O        6.17982         7.30748         1.45306
   C        3.92195         7.80520         0.75658
   C        4.02851         7.36987        -0.51286
   C        2.96542         7.21705        -1.46856
   C        1.75058         6.58013        -1.29879
   N        1.28355         5.85900        -0.18386
   O        0.26437         5.20979        -0.32828
   O        1.90595         5.92493         0.86768
   C        0.98294         6.66963        -2.52095
   C        1.67103         7.43105        -3.39854
   C        2.93784         7.80083        -2.81140
   C        3.89006         8.60427        -3.39744
   C        5.30030         8.62991        -3.18964
   C        5.87011         9.32669        -4.21082
   C        4.84554         9.85842        -5.06830
   N        5.18029        10.67355        -6.16332
   O        6.32446        11.09011        -6.21279
   O        4.33212        10.90777        -7.00851
   C        3.60171         9.49864        -4.55613
   C        2.30477        10.02322        -4.70650
   C        1.77793        10.74555        -5.74347
   C        0.48759        11.31333        -5.65150
   S       -0.29918        11.27045        -4.09194
   C       -1.69758        12.10097        -4.67786
   C       -1.56316        12.37501        -6.04160
   C       -0.33894        11.94952        -6.58638
   C       -0.11053        12.25853        -8.04542
   C        1.32016        12.17713        -8.56959
   F        2.18956        12.86553        -7.82575
   F        1.75311        10.91619        -8.68218
   F        1.39599        12.68945        -9.81058
   C       -0.65632        13.67686        -8.28712
   C       -2.17260        13.65698        -8.17988
   C       -2.65695        12.97979        -6.88018
   C       -3.63908        11.86087        -7.24095
   F       -4.14275        11.23997        -6.16623
   F       -4.68031        12.31265        -7.94777
   F       -3.05625        10.90635        -7.98652
   C       -2.67932        12.38168        -3.69053
   C       -3.84465        13.06826        -3.77670
   C       -4.69325        13.31136        -2.67099
   S       -4.42923        12.72404        -1.04780
   C       -5.85593        13.52951        -0.43403
   C       -6.51106        14.17560        -1.46357
   C       -5.85755        14.06207        -2.70442
   C       -6.57522        14.79371        -3.74942
   O       -6.26702        14.90763        -4.91063
   C       -7.78829        15.40203        -3.06237
   C       -7.79670        14.87656        -1.63278
   O       -8.70234        14.97037        -0.84674
   C       -6.20861        13.43828         0.94120
   C       -6.82096        14.43103         1.63658
   C       -7.36383        14.34207         2.98215
   C       -7.59337        13.18912         3.68424
   C       -8.15519        13.15126         4.97850
   N       -8.59779        13.05578         6.03312
   C       -7.32368        11.88705         3.21094
   N       -7.14086        10.80162         2.88505
   C       -7.70909        15.68923         3.41383
   C       -7.41822        16.59663         2.35478
   C       -6.86191        15.86540         1.20995
   O       -6.43195        16.34472         0.18399
   C       -7.65216        17.93771         2.46798
   C       -8.20333        18.44190         3.66612
   C       -8.49098        17.54189         4.73358
   C       -8.23410        16.15947         4.58912
   C       -9.03564        18.05739         5.92743
   C       -9.28714        19.39582         6.06135
   C       -9.00530        20.28047         5.00929
   C       -8.47540        19.81372         3.83706
   H        5.93387         6.99589         4.37061
   H        1.18319         8.44890         3.90425
   H        0.88903         8.23694         6.30348
   H        1.78612         7.68528         8.52960
   H        4.13029         6.97342         8.78318
   H        5.59714         6.80510         6.81200
   H        5.01761         7.04659        -0.81907
   H        0.03031         6.19447        -2.65320
   H        1.38477         7.65663        -4.40678
   H        5.83406         8.09884        -2.42811
   H        6.91816         9.48268        -4.38822
   H        1.66699         9.84612        -3.84796
   H        2.37046        10.86502        -6.63329
   H       -0.68078        11.54400        -8.65457
   H       -0.37711        14.03053        -9.27905
   H       -0.22437        14.35467        -7.54784
   H       -2.57681        13.12177        -9.04151
   H       -2.55631        14.67557        -8.22124
   H       -3.21828        13.70090        -6.28415
   H       -2.41837        11.99628        -2.70993
   H       -4.22158        13.49338        -4.69378
   H       -8.71746        15.17504        -3.58764
   H       -7.69212        16.49076        -3.04275
   H       -5.94101        12.51434         1.43845
   H       -7.42429        18.60381         1.64915
   H       -8.45731        15.50567         5.41723
   H       -9.25283        17.37270         6.73398
   H       -9.70559        19.78071         6.97911
   H       -9.21010        21.33333         5.13261
   H       -8.25642        20.48969         3.02355
*
