# ORCA input file
# SCF done       -219.546308897845          0.000706808543
! CAM-B3LYP def2-SVP def2/J RIJCOSX Grid4 TightSCF
%maxcore 5000
%tddft
    Mode sTDDFT
    Ethresh 5.0
    maxcore 5000
end

%pal
  nprocs 6
  end
* xyz 0 1
   C       -0.73295         0.68135         2.81196
   C        0.48436         1.29761         2.90816
   C        1.22520         1.37799         4.10603
   N        1.85236         1.48128         5.06146
   C        1.17273         1.85089         1.80765
   N        1.79769         2.27154         0.94221
   C       -1.37012        -0.11499         3.85316
   C       -2.33109        -0.97599         3.24443
   C       -3.06160        -1.86694         3.97749
   C       -2.87186        -1.92817         5.37597
   C       -1.92695        -1.05687         5.99267
   C       -1.17669        -0.15146         5.20845
   C       -1.75655        -1.12044         7.39074
   C       -2.48073        -2.00331         8.14452
   C       -3.40837        -2.86256         7.53632
   C       -3.59927        -2.82638         6.18174
   C       -2.38075        -0.70929         1.79770
   O       -3.02441        -1.27827         0.94913
   C       -1.50195         0.48639         1.59309
   C       -1.62440         1.21371         0.46289
   C       -1.15777         2.55421         0.19161
   C       -1.09974         3.52134         1.22069
   C       -0.68112         4.80919         1.00007
   C       -0.29962         5.14181        -0.29877
   C       -0.38429         4.17918        -1.33709
   C       -0.82382         2.89188        -1.11927
   O        0.00127         4.77985        -2.47782
   C        0.30176         6.05212        -2.11475
   N        0.14198         6.30671        -0.84261
   C        0.68865         6.96464        -3.13819
   N        1.11539         8.24215        -2.92884
   C        1.27116         8.91263        -1.66009
   C       -0.04943         9.50461        -1.17803
   C        1.33474         8.91685        -4.15158
   O        1.68483        10.07325        -4.22743
   C        1.03331         7.92494        -5.16387
   C        0.64451         6.73493        -4.51183
   C        0.25814         5.76515        -5.52451
   O       -0.13807         4.62720        -5.46089
   N        0.42110         6.46821        -6.73914
   C        0.19211         5.82878        -8.01238
   C        1.50091         5.50611        -8.72747
   C        0.87929         7.74597        -6.54335
   C        1.02375         8.70579        -7.56617
   C        1.67625         9.89316        -7.38975
   C        1.68655        10.92723        -8.34860
   C        2.71896        11.80944        -8.63804
   N        3.97829        11.87471        -8.01056
   O        4.26253        11.01212        -7.19713
   O        4.71131        12.79384        -8.32707
   C        2.35904        12.60790        -9.77301
   C        1.12688        12.22447       -10.20985
   C        0.61397        11.22365        -9.32472
   C       -0.68531        10.77237        -9.23821
   C       -1.35283        10.31405        -8.04385
   C       -2.65750        10.09658        -8.33095
   C       -2.87635        10.36197        -9.73173
   N       -4.10360        10.02344       -10.34747
   O       -5.04470         9.80544        -9.60640
   O       -4.14771         9.92025       -11.55956
   C       -1.69760        10.81180       -10.30598
   C       -1.43421        11.18499       -11.65462
   C       -2.32176        11.83452       -12.45056
   C       -2.03416        12.15724       -13.79763
   C       -2.86527        12.88596       -14.59692
   C       -2.70144        13.15856       -16.01376
   C       -1.56526        12.96735       -16.75703
   C       -1.46158        13.26685       -18.13188
   N       -1.31411        13.48743       -19.24862
   C       -0.33814        12.48834       -16.25297
   N        0.69319        12.12111       -15.90589
   C       -3.95317        13.72395       -16.50295
   C       -4.83374        13.90721       -15.39797
   C       -4.17279        13.45835       -14.16217
   O       -4.59440        13.56402       -13.03165
   C       -6.08608        14.42834       -15.55058
   C       -6.52805        14.79094       -16.84226
   C       -5.65634        14.60534       -17.95447
   C       -4.36281        14.06740       -17.76469
   C       -6.10947        14.96812       -19.23927
   C       -7.36190        15.48950       -19.41845
   C       -8.21888        15.67177       -18.32268
   C       -7.81076        15.33004       -17.06185
   H       -3.77801        -2.51581         3.49609
   H       -0.47401         0.50292         5.70060
   H       -1.03873        -0.45966         7.85399
   H       -2.34246        -2.04491         9.21441
   H       -3.97123        -3.55271         8.14659
   H       -4.31208        -3.48515         5.70789
   H       -2.19724         0.74081        -0.32909
   H       -1.43024         3.23738         2.20903
   H       -0.64652         5.54253         1.78848
   H       -0.87691         2.17399        -1.92108
   H        2.00105         9.71031        -1.82092
   H        1.64772         8.19612        -0.92907
   H       -0.44659        10.19374        -1.91940
   H        0.11327        10.04557        -0.25092
   H       -0.77014         8.71181        -0.99771
   H       -0.44403         6.46651        -8.63397
   H       -0.34806         4.90433        -7.79072
   H        2.07378         6.41064        -8.92032
   H        1.29109         5.01606        -9.67391
   H        2.10394         4.83836        -8.11734
   H        0.59453         8.47466        -8.53196
   H        2.27424        10.04660        -6.49829
   H        2.99075        13.37188       -10.18564
   H        0.56916        12.68798       -10.99968
   H       -0.89888        10.26839        -7.07429
   H       -3.43596         9.77624        -7.66513
   H       -0.44237        10.96969       -12.03406
   H       -3.28005        12.14338       -12.06184
   H       -1.11925        11.75259       -14.21229
   H       -6.73300        14.55749       -14.69568
   H       -3.72946        13.93493       -18.62751
   H       -5.44622        14.82673       -20.07994
   H       -7.69957        15.76437       -20.40641
   H       -9.20394        16.08387       -18.48257
   H       -8.46590        15.46752       -16.21417
*
