# ORCA input file
# SCF done       -243.266332914682          0.000929172086
! CAM-B3LYP def2-SVP def2/J RIJCOSX Grid4 TightSCF
%maxcore 5000
%tddft
    Mode sTDDFT
    Ethresh 5.0
    maxcore 5000
end

%pal
  nprocs 6
  end
* xyz 0 1
   C       -0.92631         2.08794        -2.39953
   C       -1.03663         3.20847        -1.61811
   C       -1.14194         3.18106        -0.21172
   N       -1.21944         3.22484         0.93230
   C       -0.99076         4.51938        -2.12040
   N       -0.93240         5.61496        -2.46323
   C       -0.76984         0.72594        -1.91429
   C       -0.20000        -0.06758        -2.95412
   C        0.07053        -1.39363        -2.77437
   C       -0.22859        -1.99515        -1.53097
   C       -0.81388        -1.20997        -0.49479
   C       -1.07903         0.16202        -0.70613
   C       -1.11818        -1.82760         0.73543
   C       -0.85537        -3.15523         0.93664
   C       -0.27738        -3.92662        -0.08273
   C        0.02956        -3.35893        -1.28963
   C       -0.02011         0.76174        -4.15637
   O        0.49791         0.47013        -5.20841
   C       -0.68729         2.05955        -3.82910
   C       -1.07012         2.87505        -4.84092
   C       -2.02201         3.93526        -4.84761
   C       -3.19006         4.09069        -4.09851
   N       -3.83304         3.17529        -3.25109
   O       -3.36050         2.05445        -3.10700
   O       -4.85180         3.54919        -2.69392
   C       -3.79618         5.35467        -4.41260
   C       -2.99284         6.01032        -5.28185
   C       -1.87387         5.16117        -5.62070
   C       -0.89212         5.50433        -6.53998
   C       -0.20650         4.68651        -7.47369
   C        0.37639         5.48820        -8.42058
   C        0.16540         6.85565        -8.07717
   N        0.69909         7.92675        -8.80897
   O        0.47666         9.06488        -8.42331
   O        1.35233         7.65786        -9.80270
   C       -0.56250         6.91174        -6.88693
   C       -0.77860         8.01960        -6.05638
   C       -0.99842         7.91944        -4.70602
   C       -1.32887         8.98415        -3.85227
   C       -1.51416         8.85119        -2.48742
   C       -1.91425        10.03445        -1.85620
   C       -2.02358        11.11255        -2.78057
   S       -1.63999        10.62063        -4.40040
   C       -2.41583        12.37273        -2.38772
   S       -2.56107        13.69378        -3.56416
   C       -4.37663        13.84095        -3.61952
   C       -2.70979        12.57014        -1.02963
   C       -2.64453        11.49280        -0.10497
   C       -2.22431        10.22339        -0.48485
   S       -2.04980         8.79722         0.51070
   C       -2.00596         9.35515         2.23412
   S       -3.17250        12.02187         1.47122
   C       -3.43033        13.64110         0.89703
   C       -3.13229        13.77515        -0.42366
   C       -3.94188        14.64954         1.80609
   C       -5.08184        15.42223         1.52851
   C       -5.91281        15.26819         0.31521
   O       -5.78075        14.48542        -0.58199
   S       -7.25322        16.44846         0.36197
   C       -6.76286        17.09776         1.96521
   O       -7.34545        17.98935         2.50517
   C       -5.57496        16.36462         2.43594
   C       -4.98295        16.61030         3.69086
   C       -3.85402        15.82467         3.96240
   C       -3.35938        14.88790         3.05527
   C       -2.16856        14.25970         3.67522
   O       -1.40288        13.45904         3.23154
   O       -2.05082        14.77815         4.93549
   C       -3.03633        15.70485         5.19621
   O       -3.14956        16.22567         6.26037
   C       -5.53445        17.55881         4.62871
   C       -4.79663        18.40811         5.37082
   C       -5.40429        19.28085         6.31960
   C       -4.73677        20.23129         7.02280
   C       -5.27683        21.08680         8.07205
   C       -6.56373        21.09694         8.53868
   C       -7.02814        21.95273         9.56191
   N       -7.47254        22.61716        10.38523
   C       -7.61493        20.26920         8.08795
   N       -8.52416        19.63630         7.78693
   C       -4.19274        21.93017         8.55810
   C       -3.00797        21.62437         7.82796
   C       -3.29351        20.57595         6.83795
   O       -2.52404        20.11464         6.02403
   C       -1.82560        22.26425         8.06922
   C       -1.77060        23.25628         9.07263
   C       -2.95028        23.56616         9.81053
   C       -4.15993        22.88916         9.53746
   C       -2.88471        24.55702        10.81162
   C       -1.71195        25.21207        11.07153
   C       -0.55172        24.90746        10.34335
   C       -0.58008        23.95031         9.36556
   H        0.50313        -1.97993        -3.57143
   H       -1.54059         0.73211         0.08499
   H       -1.56150        -1.22911         1.51750
   H       -1.09165        -3.61890         1.88264
   H       -0.07800        -4.97319         0.09254
   H        0.47316        -3.94889        -2.07824
   H       -0.61068         2.63957        -5.79366
   H       -4.73721         5.67431        -4.00936
   H       -3.19423         6.95538        -5.74554
   H       -0.24687         3.61658        -7.52399
   H        0.91379         5.17023        -9.29462
   H       -0.68395         9.00042        -6.50902
   H       -0.89138         6.96436        -4.20790
   H       -1.37607         7.91049        -1.98419
   H       -4.58868        14.69429        -4.25505
   H       -4.77995        13.99980        -2.62426
   H       -4.78723        12.93726        -4.05956
   H       -1.61969         8.50438         2.78887
   H       -3.00401         9.59835         2.58465
   H       -1.33430        10.20101         2.33815
   H       -3.18081        14.70950        -0.95259
   H       -6.61501        17.60486         4.68205
   H       -3.72458        18.46325         5.25804
   H       -6.46321        19.13568         6.48996
   H       -0.94250        22.01363         7.50044
   H       -5.03383        23.14890        10.11318
   H       -3.78037        24.78788        11.36932
   H       -1.67147        25.96914        11.84010
   H        0.36455        25.43519        10.56140
   H        0.30995        23.71146         8.80218
*
