# ORCA input file
# SCF done       -263.608864707589          0.000441367534
! CAM-B3LYP def2-SVP def2/J RIJCOSX Grid4 TightSCF
%maxcore 5000
%tddft
    Mode sTDDFT
    Ethresh 5.0
    maxcore 5000
end

%pal
  nprocs 6
  end
* xyz 0 1
   C      -17.22969        -1.16398        -7.45779
   C      -18.57379        -0.95023        -7.33749
   F      -19.23253        -0.25834        -8.27628
   C      -19.28380        -1.45248        -6.22777
   F      -20.60106        -1.22661        -6.13675
   C      -18.63891        -2.16092        -5.25316
   C      -17.25342        -2.39737        -5.34726
   C      -16.53464        -1.89098        -6.46969
   C      -15.14538        -2.11801        -6.58736
   C      -14.49588        -2.83107        -5.61321
   C      -15.22192        -3.33379        -4.49544
   C      -16.56309        -3.12551        -4.35317
   C      -14.29979        -4.05708        -3.60141
   O      -14.48838        -4.40396        -2.45998
   C      -13.01426        -4.13980        -4.36309
   C      -13.09724        -3.22499        -5.48797
   C      -12.05905        -2.79310        -6.26737
   C      -12.20201        -1.90021        -7.35086
   N      -12.26017        -1.17664        -8.23944
   C      -10.70978        -3.14448        -6.04872
   N       -9.59829        -3.38669        -5.89471
   C      -12.01968        -5.00440        -4.06172
   C      -12.10638        -6.04087        -3.07845
   C      -13.10591        -6.97388        -2.86854
   N      -14.32166        -7.14032        -3.55846
   O      -15.03066        -8.06910        -3.21988
   O      -14.59833        -6.37896        -4.47549
   C      -12.67004        -7.92203        -1.86995
   C      -11.40192        -7.61924        -1.50578
   C      -10.97989        -6.44889        -2.22941
   C       -9.80200        -5.74414        -2.09710
   C       -9.63010        -4.35027        -2.33886
   C       -8.40715        -3.97664        -1.86913
   C       -7.71373        -5.12566        -1.36850
   N       -6.42015        -4.97725        -0.83987
   O       -5.91929        -5.89188        -0.19895
   O       -5.86243        -3.91096        -1.02834
   C       -8.52519        -6.25876        -1.54161
   C       -8.27734        -7.63944        -1.52843
   C       -7.15956        -8.29465        -1.06781
   C       -7.01745        -9.68505        -1.16705
   N       -5.91416       -10.36825        -0.70626
   C       -4.71489        -9.78196        -0.14961
   C       -3.80001        -9.23401        -1.24029
   C       -6.02281       -11.74154        -0.90627
   O       -5.17519       -12.55272        -0.57471
   C       -7.31694       -11.91769        -1.54116
   C       -7.90163       -10.64979        -1.69044
   C       -9.19762       -10.82970        -2.31837
   O      -10.05615       -10.04000        -2.65271
   N       -9.31372       -12.22147        -2.49018
   C      -10.46323       -12.80243        -3.14342
   C      -10.18435       -13.10543        -4.61313
   C       -8.20080       -12.88667        -2.05204
   C       -8.00490       -14.28145        -2.12864
   C       -6.82078       -14.82070        -1.72558
   C       -6.45192       -16.17809        -1.76753
   S       -7.55908       -17.47111        -2.09967
   C       -6.33183       -18.66921        -1.84252
   C       -5.11046       -18.06540        -1.53683
   C       -5.17169       -16.67100        -1.50736
   C       -3.97414       -15.80249        -1.30020
   N       -3.81138       -14.79592        -2.40680
   O       -2.94846       -13.97771        -2.24121
   O       -4.50482       -14.90603        -3.38556
   C       -2.68238       -16.63107        -1.29988
   C       -2.86763       -17.89442        -0.47141
   C       -3.87477       -18.82414        -1.15953
   N       -4.21755       -19.89067        -0.17171
   O       -3.75128       -20.98441        -0.36241
   O       -4.91038       -19.56836         0.75931
   C       -6.56210       -20.06268        -1.98955
   C       -7.76259       -20.69654        -2.02775
   C       -9.02019       -20.12301        -1.71184
   C      -10.24193       -20.64326        -2.00436
   C      -11.45322       -20.19817        -1.26050
   O      -11.55708       -19.20446        -0.58078
   C      -12.45849       -21.25171        -1.50505
   C      -13.69890       -21.39828        -0.95365
   C      -14.48414       -22.51593        -1.31474
   C      -13.96613       -23.46517        -2.24386
   C      -14.75218       -24.58144        -2.59345
   C      -15.99460       -24.74684        -2.04823
   C      -16.50655       -23.80671        -1.13049
   C      -15.76821       -22.71404        -0.77092
   F      -17.72578       -23.99488        -0.61181
   F      -16.73946       -25.80719        -2.38107
   C      -12.68185       -23.28349        -2.80603
   C      -11.94036       -22.19052        -2.44482
   C      -10.62085       -21.73653        -2.87371
   C       -9.95881       -22.12894        -4.00666
   C       -8.83899       -21.44165        -4.52229
   N       -7.96586       -20.86886        -4.99801
   C      -10.39118       -23.18193        -4.83997
   N      -10.69747       -24.04444        -5.53164
   H      -16.70153        -0.77260        -8.31324
   H      -19.19654        -2.53935        -4.41087
   H      -14.62933        -1.72997        -7.45107
   H      -17.09172        -3.51996        -3.49907
   H      -11.08364        -4.96174        -4.60520
   H      -13.28816        -8.72152        -1.50984
   H      -10.83501        -8.09676        -0.73191
   H      -10.39037        -3.69204        -2.71067
   H       -7.99182        -2.98640        -1.84999
   H       -9.05583        -8.24436        -1.97349
   H       -6.36590        -7.73566        -0.59675
   H       -4.20569       -10.58559         0.38865
   H       -4.98803        -8.99508         0.55677
   H       -3.51475       -10.02909        -1.92528
   H       -2.90144        -8.82522        -0.78819
   H       -4.29449        -8.44492        -1.80132
   H      -11.26414       -12.06203        -3.06698
   H      -10.76416       -13.70650        -2.60798
   H       -9.93322       -12.18867        -5.14071
   H      -11.06920       -13.53716        -5.07174
   H       -9.35736       -13.80396        -4.71925
   H       -8.78473       -14.90818        -2.53620
   H       -6.07407       -14.14808        -1.32595
   H       -4.05766       -15.21437        -0.37889
   H       -1.86593       -16.02936        -0.90126
   H       -2.42980       -16.91007        -2.32657
   H       -3.24895       -17.63239         0.51869
   H       -1.91312       -18.40866        -0.35327
   H       -3.42137       -19.32576        -2.02202
   H       -5.67956       -20.67163        -2.13589
   H       -7.75259       -21.75469        -2.25402
   H       -9.03306       -19.24286        -1.07712
   H      -14.07514       -20.67307        -0.24831
   H      -14.37703       -25.30901        -3.29612
   H      -16.17408       -22.00427        -0.06721
   H      -12.31056       -24.01955        -3.50142
*
