# ORCA input file
# SCF done       -224.632289311637          0.000278660908
! CAM-B3LYP def2-SVP def2/J RIJCOSX Grid4 TightSCF
%maxcore 5000
%tddft
    Mode sTDDFT
    Ethresh 5.0
    maxcore 5000
end

%pal
  nprocs 6
  end
* xyz 0 1
   C       -2.55941         2.73939         7.09946
   N       -1.83193         2.34042         6.01927
   C       -1.25652         1.03376         5.82330
   C       -2.30765         0.01885         5.38092
   C       -1.74645         3.35953         5.05369
   O       -1.15601         3.23185         3.99085
   C       -2.47732         4.45572         5.63148
   C       -2.97313         4.02640         6.90502
   C       -3.72295         5.12466         7.48204
   O       -4.32921         5.24369         8.52291
   N       -3.63467         6.14594         6.51311
   C       -4.21505         7.44639         6.74084
   C       -3.16833         8.46566         7.18431
   C       -2.89219         5.76428         5.41981
   C       -2.63655         6.59042         4.29369
   C       -1.84202         6.14739         3.28892
   C       -1.53925         6.84141         2.09569
   S       -2.31469         8.32626         1.63608
   C       -1.48966         8.35559         0.10849
   C       -0.65401         7.25469        -0.01901
   C       -0.65564         6.42123         1.11177
   C        0.26080         5.25271         1.26992
   N        1.06327         5.34675         2.53556
   O        1.10098         6.40467         3.11069
   O        1.67127         4.35594         2.84342
   C        1.29635         5.20688         0.13871
   C        0.62136         5.46804        -1.19968
   C        0.11773         6.91430        -1.26030
   N       -0.77749         7.00538        -2.44878
   O       -1.80039         6.37073        -2.41792
   O       -0.40324         7.69113        -3.36936
   C       -1.71368         9.40692        -0.82889
   C       -2.57230        10.41895        -0.60190
   C       -2.91757        11.48466        -1.51114
   C       -3.79289        12.49010        -1.05141
   O       -4.24812        12.41753         0.24113
   C       -5.63957        12.17027         0.40904
   C       -5.99422        10.70638         0.17368
   C       -4.16579        13.54651        -1.89855
   C       -3.72548        13.53372        -3.22344
   C       -2.87783        12.54365        -3.68235
   C       -2.46139        11.53985        -2.83175
   C       -4.97253        14.66668        -1.44497
   C       -4.89343        15.21039        -0.21726
   C       -5.68002        16.31656         0.22037
   S       -6.86939        17.04897        -0.81154
   C       -7.30335        18.20702         0.40894
   C       -6.52318        18.04059         1.54444
   C       -5.63693        16.95448         1.45046
   C       -4.79732        16.50843         2.60730
   N       -4.94805        15.04472         2.84650
   O       -3.96567        14.45066         3.21278
   O       -6.04958        14.57004         2.71793
   C       -5.26487        17.18685         3.90257
   C       -5.40180        18.68603         3.68006
   C       -6.55787        18.97154         2.71210
   N       -6.37228        20.39886         2.28455
   O       -5.95537        20.61250         1.17432
   O       -6.59507        21.23037         3.12408
   C       -8.35585        19.13696         0.26201
   C       -9.07689        19.37250        -0.86202
   C      -10.13411        20.31744        -0.84450
   N      -10.88811        20.66897        -1.93942
   C      -10.71140        20.19469        -3.28950
   C       -9.53909        20.88299        -3.98471
   C      -11.85826        21.63878        -1.62514
   O      -12.63317        22.09327        -2.44343
   C      -11.67866        21.88018        -0.21128
   C      -10.61341        21.04916         0.23805
   C      -10.44999        21.26902         1.65171
   O       -9.69286        20.77553         2.47461
   N      -11.42147        22.22652         1.97293
   C      -11.51856        22.76203         3.30883
   C      -10.80674        24.10716         3.43164
   C      -12.15608        22.60337         0.87100
   C      -13.21901        23.56522         0.92325
   C      -13.92723        23.92222        -0.15028
   H       -2.72096         2.07818         7.93039
   H       -0.78008         0.70940         6.75289
   H       -0.49363         1.14356         5.04774
   H       -3.08656        -0.08027         6.13392
   H       -1.84363        -0.95136         5.22755
   H       -2.76486         0.33859         4.44772
   H       -4.95629         7.31139         7.53370
   H       -4.72513         7.78323         5.83378
   H       -2.70592         8.14075         8.11306
   H       -3.63979         9.43061         7.34862
   H       -2.39119         8.57831         6.43163
   H       -3.07620         7.57639         4.24920
   H       -1.41382         5.15859         3.37929
   H       -0.28828         4.30659         1.33481
   H        1.78866         4.23441         0.13534
   H        2.05629         5.97425         0.31212
   H       -0.23214         4.79552        -1.31688
   H        1.32341         5.28782        -2.01524
   H        0.94145         7.61580        -1.43556
   H       -1.15055         9.36876        -1.74892
   H       -3.07790        10.45858         0.35393
   H       -6.22556        12.80807        -0.26346
   H       -5.85728        12.45685         1.44010
   H       -7.06234        10.56762         0.31534
   H       -5.46188        10.06645         0.87290
   H       -5.73211        10.40965        -0.84045
   H       -4.03307        14.33331        -3.88121
   H       -2.53748        12.55801        -4.70648
   H       -1.79793        10.77429        -3.20137
   H       -5.63106        15.11426        -2.18025
   H       -4.18526        14.80053         0.48856
   H       -3.72951        16.68921         2.43928
   H       -4.54764        16.98723         4.69998
   H       -6.23418        16.77216         4.19105
   H       -4.47019        19.07106         3.25565
   H       -5.58327        19.19807         4.62506
   H       -7.52083        18.94056         3.23425
   H       -8.61842        19.68798         1.15439
   H       -8.84692        18.85043        -1.77978
   H      -11.64046        20.42954        -3.81674
   H      -10.57491        19.10944        -3.27969
   H       -9.71248        21.95540        -4.02691
   H       -9.43900        20.50650        -4.99903
   H       -8.60945        20.70376        -3.44906
   H      -11.03219        22.03212         3.96225
   H      -12.57029        22.84639         3.59609
   H       -9.75193        23.98827         3.19640
   H      -10.89609        24.48049         4.44812
   H      -11.23486        24.83807         2.74898
   H      -13.43577        24.00143         1.88866
   H      -13.72927        23.50122        -1.12164
   H      -14.72194        24.64452        -0.07816
*
