# ORCA input file
# SCF done       -248.568825714138          0.000752849522
! CAM-B3LYP def2-SVP def2/J RIJCOSX Grid4 TightSCF
%maxcore 5000
%tddft
    Mode sTDDFT
    Ethresh 5.0
    maxcore 5000
end

%pal
  nprocs 6
  end
* xyz 0 1
   C       -1.46841        -0.83192         3.35859
   N       -2.42585        -0.19460         4.07431
   C       -3.46435        -0.82360         4.85302
   C       -2.93246        -1.31298         6.19738
   C       -2.24980         1.20778         4.03358
   O       -2.99551         1.99022         4.59378
   C       -1.07604         1.39113         3.21323
   C       -0.62544         0.10129         2.81001
   C        0.56145         0.27578         1.98948
   O        1.28566        -0.51319         1.43179
   N        0.75408         1.67342         1.96453
   C        1.83427         2.26367         1.20719
   C        1.34613         2.93235        -0.07476
   C       -0.20355         2.34521         2.67987
   C       -0.21488         3.75137         2.83767
   C       -1.19096         4.37631         3.55457
   C       -1.32454         5.75983         3.82289
   C       -0.98307         6.90987         3.10834
   N       -0.32217         7.05933         1.87841
   O       -0.33836         8.16878         1.37217
   O        0.22782         6.09518         1.36572
   C       -1.54577         8.05724         3.76788
   C       -2.24753         7.64876         4.85558
   C       -2.13218         6.22431         4.96617
   C       -2.52784         5.44061         6.03419
   C       -1.86053         4.26567         6.50103
   C       -2.35535         3.93118         7.72527
   C       -3.40923         4.83809         8.06306
   N       -4.16079         4.71203         9.24315
   O       -3.85002         3.81459        10.00792
   O       -5.07032         5.50050         9.45194
   C       -3.56502         5.76803         7.03429
   C       -4.59163         6.72631         6.92883
   C       -5.06477         7.27830         5.77412
   C       -6.05905         8.28038         5.74692
   C       -6.61574         8.85074         4.61742
   C       -7.55545         9.85389         4.89543
   C       -7.71621        10.04549         6.29429
   S       -6.69754         8.98665         7.21662
   C       -8.57081        10.99243         6.81777
   S       -8.71354        11.18329         8.56942
   C       -8.14189        12.89839         8.79773
   C       -9.32094        11.76049         5.90836
   C       -9.14343        11.60206         4.50325
   C       -8.28542        10.65046         3.97402
   S       -7.94730        10.32035         2.28474
   C       -9.35190        10.95757         1.33332
   S      -10.14363        12.75352         3.64678
   C      -10.82202        13.36813         5.14227
   C      -10.28713        12.73075         6.22928
   C      -11.76140        14.44088         5.11146
   C      -11.77918        15.59538         5.88261
   N      -10.90693        15.99087         6.90749
   O      -10.94336        17.15774         7.25254
   O      -10.14459        15.16420         7.39407
   C      -12.78969        16.48884         5.37004
   C      -13.37215        15.92033         4.28654
   C      -12.80021        14.61789         4.08801
   C      -13.28042        13.64302         3.23726
   C      -13.21188        12.22206         3.42886
   C      -14.01256        11.62367         2.51353
   C      -14.59902        12.63527         1.66982
   N      -15.37159        12.27354         0.55145
   O      -15.34616        11.09968         0.22276
   O      -16.01795        13.12868        -0.03225
   C      -14.15943        13.88636         2.08228
   C      -14.29631        15.17645         1.49582
   C      -15.41254        15.68217         0.91376
   C      -15.47395        16.99197         0.37516
   C      -16.61529        17.69881         0.14835
   C      -16.63754        18.86247        -0.78150
   O      -15.68184        19.45432        -1.22346
   C      -18.06853        19.08995        -1.07304
   C      -18.63550        19.97146        -1.94785
   C      -20.04261        20.00674        -2.07359
   C      -20.83813        19.11789        -1.29295
   C      -22.24062        19.15566        -1.42661
   C      -22.82648        20.03717        -2.29126
   C      -22.03911        20.91720        -3.06136
   C      -20.67636        20.90305        -2.95613
   F      -22.64032        21.77045        -3.90011
   F      -24.15878        20.07404        -2.41507
   C      -20.22421        18.21845        -0.39167
   C      -18.85980        18.21033        -0.27789
   C      -17.96944        17.44405         0.58810
   C      -18.33034        16.80029         1.74351
   C      -17.40129        16.36757         2.71226
   N      -16.68182        16.07016         3.55621
   C      -19.66760        16.62458         2.15662
   N      -20.73972        16.44742         2.52536
   H       -1.45133        -1.90328         3.28059
   H       -3.88404        -1.65553         4.28114
   H       -4.23802        -0.06797         5.01221
   H       -2.14067        -2.04512         6.05463
   H       -3.73577        -1.77311         6.76525
   H       -2.53732        -0.47748         6.76996
   H        2.50648         1.43656         0.96151
   H        2.37157         2.98103         1.83370
   H        0.76931         2.22674        -0.66794
   H        2.20239         3.25647        -0.65918
   H        0.73004         3.80139         0.14117
   H        0.58710         4.31662         2.39321
   H       -1.95453         3.75811         4.01022
   H       -1.40076         9.06274         3.42110
   H       -2.71806         8.28146         5.58208
   H       -1.01712         3.81002         6.02149
   H       -2.03339         3.13160         8.36519
   H       -5.09132         6.98054         7.85756
   H       -4.70171         6.93912         4.81329
   H       -6.34194         8.55535         3.62039
   H       -8.19246        13.07654         9.86700
   H       -8.76973        13.60919         8.27234
   H       -7.11252        12.96411         8.45865
   H       -9.25022        10.50418         0.35134
   H       -9.30096        12.03815         1.24590
   H      -10.28376        10.64275         1.79077
   H      -10.61999        12.91477         7.23288
   H      -13.01375        17.43878         5.81605
   H      -14.22009        16.29914         3.75090
   H      -12.70906        11.73636         4.24217
   H      -14.21950        10.57603         2.40329
   H      -13.44170        15.83168         1.61985
   H      -16.30711        15.07954         0.86383
   H      -14.54943        17.45689         0.04904
   H      -18.01935        20.63492        -2.53543
   H      -22.85787        18.49123        -0.84232
   H      -20.08847        21.58294        -3.55265
   H      -20.84780        17.55143         0.18215
*
