# ORCA input file
# SCF done       -223.901984364610          0.001003871175
! CAM-B3LYP def2-SVP def2/J RIJCOSX Grid4 TightSCF
%maxcore 5000
%tddft
    Mode sTDDFT
    Ethresh 5.0
    maxcore 5000
end

%pal
  nprocs 6
  end
* xyz 0 1
   C        1.77219         3.19334         3.08839
   C        1.48155         1.72903         3.03392
   O        1.26945         1.08404         2.03057
   C        1.56354         1.28149         4.43244
   C        1.69814         2.39104         5.27234
   C        1.66057         3.61032         4.47371
   C        1.35271         4.86577         4.91158
   C        1.07166         5.93333         4.03006
   N        0.73362         6.79033         3.34616
   C        1.15031         5.20145         6.26640
   N        0.96953         5.51394         7.35540
   C        1.82920         2.22674         6.65688
   C        1.81924         0.95652         7.17218
   C        1.67567        -0.18595         6.35337
   C        1.54414        -0.03230         4.94249
   C        1.41028        -1.17541         4.12914
   C        1.40462        -2.42250         4.69166
   C        1.53155        -2.57994         6.08077
   C        1.66379        -1.48759         6.89412
   C        2.22461         3.84248         1.98880
   C        2.90782         5.09117         1.95839
   N        3.51438         5.58337         3.03251
   C        4.20206         6.65994         2.60670
   C        4.04626         6.85164         1.16094
   C        4.80540         8.02673         0.70341
   O        4.92654         8.45721        -0.42134
   C        5.38817         8.53510         1.96316
   C        5.00410         7.66493         3.09598
   N        5.52241         8.13119         4.25668
   C        6.17674         9.21904         3.92569
   C        6.12564         9.53405         2.51135
   C        3.18471         5.87377         0.73651
   C        2.66232         5.64185        -0.57112
   C        1.45262         5.09566        -0.81064
   C        0.89207         4.80675        -2.10623
   C       -0.46232         4.55366        -2.20916
   C       -1.03011         4.22162        -3.44943
   C       -2.34503         3.91708        -3.80802
   C       -3.52717         3.97832        -2.91517
   C       -4.47460         5.13715        -3.36064
   N       -5.51069         5.45628        -2.41907
   C       -4.29060         2.64325        -2.83275
   N       -5.21002         2.66359        -1.70410
   C       -2.33023         3.59481        -5.21434
   C       -3.30189         3.21091        -6.06513
   C       -3.01657         2.91176        -7.49407
   C       -1.57440         2.98903        -7.88181
   C       -0.61662         3.40627        -7.02705
   C       -0.94176         3.71541        -5.69073
   C       -0.16796         4.11146        -4.61194
   C        1.21017         4.38893        -4.48743
   C        1.71566         4.73423        -3.27393
   C       -3.68333         3.93121        -8.37780
   C       -4.46472         3.61413        -9.42139
   C       -4.99970         4.60082       -10.30323
   N       -4.69434         5.88560       -10.18947
   C       -5.33076         6.50746       -11.19864
   C       -6.12032         5.56009       -12.00158
   C       -6.77974         6.25841       -13.11840
   O       -7.52619         5.80251       -13.96184
   C       -6.31716         7.64306       -12.95293
   C       -5.44707         7.75699       -11.76308
   N       -5.01093         9.02846       -11.61058
   C       -5.53650         9.69396       -12.61336
   C       -6.35699         8.88981       -13.49248
   C       -5.91031         4.32378       -11.43765
   C       -6.39967         3.04658       -11.82936
   C       -7.21528         2.88591       -12.89832
   C       -7.69049         1.63047       -13.35557
   C       -8.26894         1.41596       -14.56493
   C       -9.08311         0.19835       -14.83165
   O       -9.08311        -0.81789       -14.17102
   C       -9.90196         0.54043       -16.00785
   C       -9.52261         1.79347       -16.49484
   C       -8.39777         2.29490       -15.71125
   C       -7.50466         3.25481       -16.10069
   C       -6.26082         3.47789       -15.46813
   N       -5.20423         3.63784       -15.04965
   C       -7.64782         4.04359       -17.26203
   N       -7.72360         4.71308       -18.19075
   C      -10.18049         2.36092       -17.59360
   C      -11.19809         1.65957       -18.18595
   C      -11.59615         0.38379       -17.72889
   C      -10.93832        -0.20173       -16.60832
   C      -11.34162        -1.47363       -16.15365
   C      -12.35503        -2.14018       -16.78570
   C      -13.00617        -1.56841       -17.89040
   C      -12.63655        -0.33483       -18.35201
   H        1.95004         3.08136         7.30251
   H        1.92562         0.81028         8.23737
   H        1.31515        -1.04289         3.06296
   H        1.30309        -3.29797         4.06778
   H        1.52534        -3.57368         6.50342
   H        1.76197        -1.60647         7.96337
   H        2.15630         3.30337         1.05001
   H        6.69579         9.78935         4.67648
   H        6.58974        10.38007         2.04427
   H        3.27911         6.00631        -1.38135
   H        0.80545         4.88267         0.03181
   H       -1.08236         4.61589        -1.32607
   H       -3.18103         4.21681        -1.90266
   H       -4.94946         4.86204        -4.30549
   H       -3.87136         6.03269        -3.53257
   H       -6.02129         4.61599        -2.16258
   H       -5.12870         5.86516        -1.57415
   H       -3.55543         1.82318        -2.77528
   H       -4.88846         2.49513        -3.73436
   H       -5.79167         1.83330        -1.70334
   H       -4.69568         2.68048        -0.82890
   H       -4.33550         3.12429        -5.76503
   H       -3.42126         1.92042        -7.73811
   H       -1.34525         2.73856        -8.90550
   H        0.41265         3.47585        -7.34684
   H        1.84956         4.31947        -5.35461
   H        2.77059         4.93315        -3.17138
   H       -3.45389         4.96781        -8.18152
   H       -4.70586         2.58072        -9.63032
   H       -5.34288        10.74668       -12.72572
   H       -6.86663         9.24133       -14.36762
   H       -6.06235         2.17868       -11.27822
   H       -7.53667         3.76547       -13.43888
   H       -7.65470         0.78322       -12.67894
   H       -9.90133         3.33582       -17.95872
   H      -11.72011         2.08506       -19.03092
   H      -10.83496        -1.90273       -15.30365
   H      -12.66239        -3.11514       -16.43770
   H      -13.80422        -2.11216       -18.37399
   H      -13.13575         0.10719       -19.20221
*
