# ORCA input file
# SCF done       -210.250551079770          0.000754144294
! CAM-B3LYP def2-SVP def2/J RIJCOSX Grid4 TightSCF
%maxcore 5000
%tddft
    Mode sTDDFT
    Ethresh 5.0
    maxcore 5000
end

%pal
  nprocs 6
  end
* xyz 0 1
   C       12.27057         6.53795         7.13915
   S       10.65576         7.04160         6.88428
   C       10.59360         6.22169         5.34088
   C       11.80199         5.61408         5.06648
   C       12.75124         5.79484         6.10435
   C       14.16140         5.27765         6.05294
   N       15.06231         6.42504         5.97517
   C       14.30765         4.26989         4.90179
   C       13.65421         4.79751         3.63097
   C       12.13327         4.85002         3.81777
   N       11.63749         3.47739         3.92715
   C        9.37979         6.35475         4.59370
   C        9.03200         5.66757         3.49232
   C        7.84367         5.90642         2.69793
   C        7.81454         5.53514         1.33280
   C        8.95267         4.88683         0.65808
   O        9.71082         4.08338         1.17763
   C        9.12912         5.25408        -0.76790
   C        9.56818         4.35481        -1.69538
   S        9.63632         5.01199        -3.27689
   C        9.07387         6.52808        -2.70004
   C        8.85713         6.53248        -1.35493
   C        8.41652         7.75419        -0.63561
   O        7.54526         8.47106        -1.08151
   C        9.14187         8.07677         0.61696
   C       10.44966         7.65248         0.84279
   C       11.10859         8.03295         1.99699
   C       10.46792         8.81970         2.94040
   C        9.16692         9.24374         2.72112
   C        8.51057         8.88594         1.56019
   C        6.66684         5.81787         0.58373
   C        5.58276         6.45717         1.13463
   C        5.59971         6.84934         2.48011
   C        6.73666         6.55469         3.23270
   C        4.47441         7.53241         3.06594
   N        4.26515         7.55306         4.43182
   C        3.13931         8.27215         4.68328
   C        2.28832         8.72216         5.68999
   C        1.30387         9.48082         5.05021
   N        1.53619         9.49328         3.69307
   C        2.64579         8.75145         3.44796
   C        3.48019         8.27341         2.43351
   C        0.20470        10.12594         5.69015
   C       -0.70945        10.91536         5.09824
   C       -1.84805        11.49169         5.79258
   C       -3.08034        11.66633         5.13184
   C       -3.34454        11.06020         3.81207
   O       -4.02170        11.57890         2.94983
   C       -2.75910         9.69332         3.67255
   C       -2.94446         8.71679         4.60427
   S       -2.08895         7.27667         4.23269
   C       -1.42315         8.00148         2.82662
   C       -1.88611         9.26519         2.62450
   C       -1.38708        10.16938         1.55358
   O       -0.20041        10.44928         1.50246
   C       -2.38289        10.71099         0.62245
   C       -2.04906        11.82679        -0.14674
   C       -2.97128        12.36914        -1.01818
   C       -4.22785        11.79585        -1.13844
   C       -4.56007        10.67670        -0.39035
   C       -3.64653        10.13475         0.49111
   C       -4.11187        12.35912         5.76118
   C       -3.97936        12.78667         7.06401
   C       -2.79662        12.53865         7.76633
   C       -1.73227        11.93463         7.10380
   C       -2.66294        12.94697         9.15175
   S       -3.42192        14.41400         9.67612
   C       -2.78403        14.24920        11.28531
   C       -2.02234        13.10416        11.39294
   C       -1.98397        12.35129        10.18911
   C       -1.39347        10.96532        10.14011
   N       -2.09962        10.13360         9.17802
   C       -1.41057        10.38877        11.56505
   C       -0.62775        11.30567        12.48766
   C       -1.30952        12.67743        12.65058
   N       -0.35217        13.70704        13.04843
   C       -3.20974        15.25742        12.22457
   C       -2.73022        15.50083        13.44074
   H       12.78626         6.82027         8.03482
   H       14.39333         4.77739         7.00228
   H       14.89117         6.94727         5.12218
   H       16.02656         6.10986         5.95677
   H       13.81036         3.33811         5.17188
   H       15.36779         4.06411         4.73441
   H       13.88157         4.13870         2.79204
   H       14.02693         5.79656         3.38921
   H       11.69264         5.38414         2.95611
   H       10.72096         3.46200         4.35992
   H       11.54285         3.07256         3.00150
   H        8.71590         7.11641         4.98296
   H        9.67802         4.89931         3.11106
   H        9.82741         3.32874        -1.52352
   H        8.95741         7.35286        -3.37488
   H       10.96063         7.04923         0.10629
   H       12.12848         7.71829         2.16155
   H       10.98594         9.10481         3.84411
   H        8.66801         9.86099         3.45331
   H        7.50060         9.21401         1.36500
   H        6.61405         5.49460        -0.44586
   H        4.70828         6.64717         0.53400
   H        6.77151         6.84752         4.27070
   H        4.80059         7.02801         5.10030
   H        2.35361         8.54901         6.74591
   H        0.96286         9.94178         2.98872
   H        3.40670         8.46395         1.38208
   H        0.10123         9.90534         6.74413
   H       -0.62391        11.14596         4.04646
   H       -3.54383         8.76818         5.49140
   H       -0.74472         7.44836         2.20781
   H       -1.06593        12.25924        -0.03252
   H       -2.71544        13.24093        -1.60192
   H       -4.95171        12.22335        -1.81671
   H       -5.53922        10.23280        -0.49021
   H       -3.90509         9.26262         1.07298
   H       -5.03260        12.51625         5.21878
   H       -4.79403        13.29780         7.55550
   H       -0.78427        11.83932         7.60502
   H       -0.34699        11.01826         9.80372
   H       -3.08647        10.09183         9.40840
   H       -1.73089         9.18914         9.19978
   H       -0.96784         9.38904        11.55936
   H       -2.44474        10.30365        11.91038
   H        0.37064        11.45580        12.06320
   H       -0.50459        10.84727        13.47165
   H       -2.05437        12.61611        13.45769
   H        0.28811        13.90216        12.28609
   H        0.19225        13.38424        13.84168
   H       -4.02497        15.86518        11.84761
   H       -1.88738        14.96757        13.83833
   H       -3.16101        16.27767        14.04958
*
