# ORCA input file
# SCF done       -194.885529988205          0.000801641444
! CAM-B3LYP def2-SVP def2/J RIJCOSX Grid4 TightSCF
%maxcore 5000
%tddft
    Mode sTDDFT
    Ethresh 5.0
    maxcore 5000
end

%pal
  nprocs 6
  end
* xyz 0 1
   C       -9.39736         2.81199        -9.25222
   C      -10.46557         2.03811        -9.62820
   C      -10.81941         1.77938       -10.96845
   N      -11.16058         1.52918       -12.03623
   C      -11.34738         1.36360        -8.75741
   N      -12.10667         0.76672        -8.13581
   C       -8.45158         3.44487       -10.16810
   C       -7.44016         4.08268        -9.40650
   C       -6.39554         4.76390        -9.98227
   C       -6.34533         4.82202       -11.37851
   C       -7.36003         4.18571       -12.13112
   C       -8.41662         3.49473       -11.54786
   S       -7.09932         4.38836       -13.83498
   C       -5.66297         5.30332       -13.53122
   C       -5.38531         5.45473       -12.21805
   C       -7.72067         3.88330        -7.97599
   O       -7.04211         4.28749        -7.04349
   C       -8.96723         3.11926        -7.90406
   C       -9.63510         2.80633        -6.74426
   C       -9.28021         3.06053        -5.41906
   S       -7.82007         3.77288        -4.79460
   C       -8.30746         3.57076        -3.15122
   C       -9.58912         3.00221        -3.06108
   C      -10.13073         2.70189        -4.34750
   N      -11.34045         2.14828        -4.50259
   C      -12.00815         1.91724        -3.40479
   N      -11.64115         2.23582        -2.15664
   C      -10.46352         2.77858        -1.98091
   C       -7.41494         3.94293        -2.08948
   C       -6.50899         4.96465        -2.28715
   C       -5.59864         5.30800        -1.27203
   C       -4.59225         6.26801        -1.22070
   C       -4.19806         7.28235        -2.23455
   C       -3.36619         6.66888        -3.38797
   N       -4.12221         5.65029        -4.08499
   C       -5.39267         8.04825        -2.83213
   N       -4.92234         9.32331        -3.34863
   C       -3.94139         6.11628         0.05931
   C       -2.88098         6.74864         0.59657
   C       -2.39724         6.42951         1.96615
   C       -3.09660         5.28268         2.62848
   C       -4.15515         4.65794         2.07538
   C       -4.61508         5.03435         0.79407
   C       -5.61885         4.55447        -0.02375
   C       -6.55745         3.51132         0.14815
   C       -7.42899         3.22029        -0.84978
   C       -2.66342         7.61208         2.86136
   C       -1.76229         8.09930         3.72774
   C       -2.01833         9.18774         4.60753
   S       -0.81211         9.70910         5.71919
   C       -1.79599        10.98269         6.38405
   C       -3.04757        10.98291         5.74567
   C       -3.17211         9.98133         4.73440
   N       -4.29525         9.84748         4.00619
   C       -5.25668        10.68457         4.28019
   N       -5.24762        11.66071         5.19936
   C       -4.16905        11.81757         5.91806
   C       -1.42698        11.77778         7.47946
   C       -0.21165        11.94318         8.08213
   C        1.13910        11.65195         7.66657
   C        1.62302        11.72361         6.38353
   C        2.97101        11.51079         6.03805
   N        4.05334        11.32496         5.70303
   C        0.82961        12.12089         5.29002
   N        0.21797        12.47942         4.38630
   C        1.95479        11.56752         8.87281
   C        1.18903        12.04364         9.96885
   C       -0.16812        12.38505         9.50209
   O       -1.07805        12.86780        10.13805
   C        1.70098        12.12605        11.24092
   C        3.02057        11.70822        11.44247
   C        3.76993        11.22261        10.34405
   C        3.25746        11.14919         9.05345
   S        5.36691        10.75167        10.83171
   C        5.02788        11.20396        12.46657
   C        3.77853        11.68440        12.64729
   H       -5.64115         5.23821        -9.37376
   H       -9.16490         3.02918       -12.16693
   H       -5.10738         5.67697       -14.36928
   H       -4.53472         5.99312       -11.84064
   H      -10.58910         2.29653        -6.81962
   H      -12.97514         1.44455        -3.51033
   H      -10.21619         3.07320        -0.96898
   H       -6.49142         5.49293        -3.22625
   H       -3.55281         8.01977        -1.74532
   H       -2.41249         6.30161        -2.97402
   H       -3.15466         7.48229        -4.08460
   H       -4.10843         4.77159        -3.58128
   H       -3.76568         5.49240        -5.01801
   H       -6.18089         8.14876        -2.06768
   H       -5.79089         7.48001        -3.67297
   H       -4.67350         9.94710        -2.58749
   H       -5.64691         9.77495        -3.89442
   H       -2.35703         7.53946         0.07740
   H       -1.31532         6.24584         1.93981
   H       -2.72753         5.00784         3.60430
   H       -4.64525         3.84555         2.59220
   H       -6.55981         2.94334         1.06665
   H       -8.11509         2.39453        -0.74624
   H       -3.65565         8.03431         2.81953
   H       -0.76925         7.67094         3.78812
   H       -6.16718        10.58800         3.70382
   H       -4.17995        12.61793         6.64668
   H       -2.25193        12.26026         7.99632
   H        1.10210        12.50137        12.05611
   H        3.86095        10.76837         8.24581
   H        5.79809        11.07894        13.20260
   H        3.39118        12.01373        13.59441
*
