# ORCA input file
# SCF done       -195.595050190481          0.000743114815
! CAM-B3LYP def2-SVP def2/J RIJCOSX Grid4 TightSCF
%maxcore 5000
%tddft
    Mode sTDDFT
    Ethresh 5.0
    maxcore 5000
end

%pal
  nprocs 6
  end
* xyz 0 1
   C       -8.82313         8.89370        -1.63487
   C       -9.11745        10.18627        -1.97611
   C       -9.85737        10.55566        -3.12037
   N      -10.44699        10.92101        -4.03453
   C       -8.73392        11.32945        -1.24269
   N       -8.46169        12.30408        -0.70052
   C       -9.24116         7.70352        -2.36052
   C       -8.78942         6.55447        -1.66283
   C       -9.03126         5.27548        -2.10485
   C       -9.75559         5.12010        -3.28952
   C      -10.20072         6.27307        -3.98261
   C       -9.95527         7.56578        -3.53730
   S      -11.06486         5.84398        -5.42456
   C      -10.83024         4.16277        -5.09448
   C      -10.13812         3.92399        -3.95896
   C       -8.04252         6.96252        -0.46432
   O       -7.44406         6.23660         0.29776
   C       -8.08960         8.45741        -0.45398
   C       -7.43720         9.23457         0.44345
   C       -6.83732         8.75371         1.64790
   C       -5.52071         9.16998         2.15567
   N       -5.14994         8.55527         3.23718
   C       -6.18352         7.73072         3.56772
   C       -7.28124         7.86233         2.58940
   C       -8.38674         7.01465         2.96700
   S       -9.83398         6.88402         2.19473
   C       -7.92282         6.32420         4.13774
   C       -6.54346         6.76250         4.46186
   N       -6.03535         6.02882         5.48895
   C       -6.96177         5.17674         5.80438
   C       -8.19758         5.30671         5.02133
   C       -9.35903         4.51266         5.24081
   S       -9.19291         2.81203         5.53704
   C      -10.92286         2.62554         5.67674
   C      -11.57134         3.84662         5.52759
   C      -10.68803         4.90975         5.28701
   C      -11.13678         6.33597         5.18159
   C      -10.24508         7.20707         5.91118
   N       -9.55821         7.89953         6.50739
   C      -12.57577         6.49717         5.69184
   C      -13.45139         5.41856         5.06977
   C      -13.06731         4.04130         5.62667
   O      -13.81529         2.97967         5.06673
   C      -13.68931         2.79497         3.67348
   C      -11.51351         1.35643         5.88579
   C      -10.82541         0.18692         5.83401
   C      -11.41234        -1.09240         5.95758
   C      -12.80271        -1.42649         6.31543
   N      -13.06946        -2.69624         6.30685
   C      -11.90585        -3.31778         5.94206
   C      -10.83837        -2.32643         5.73497
   C       -9.62934        -2.97891         5.31912
   S       -8.17932        -2.30162         4.94281
   C       -9.98773        -4.37626         5.26284
   C      -11.39399        -4.55605         5.66007
   N      -11.74583        -5.87264         5.57870
   C      -10.67521        -6.50137         5.20319
   C       -9.50846        -5.62959         4.97419
   C       -8.23465        -6.01523         4.47428
   C       -7.61920        -7.21318         4.62023
   C       -7.91652        -8.34512         5.47786
   C       -8.51109        -8.27885         6.70988
   C       -8.72069        -9.40074         7.53838
   N       -8.92199       -10.29164         8.23251
   C       -8.88147        -7.06555         7.32913
   N       -9.13137        -6.10220         7.90068
   C       -7.25507        -9.50678         4.90038
   C       -6.38577        -9.06904         3.86538
   C       -6.50669        -7.60952         3.70462
   O       -5.89333        -6.88327         2.95999
   C       -5.59088        -9.93861         3.15726
   C       -5.66397       -11.29790         3.47524
   C       -6.54526       -11.72502         4.49951
   C       -7.34354       -10.84717         5.22305
   S       -6.47657       -13.44498         4.71065
   C       -5.29215       -13.57621         3.45791
   C       -4.95832       -12.39174         2.90030
   H       -8.67170         4.42320        -1.54941
   H      -10.31121         8.40991        -4.10382
   H      -11.23120         3.44476        -5.78327
   H       -9.89675         2.94154        -3.59561
   H       -7.31685        10.29512         0.25729
   H       -4.87948         9.89063         1.67876
   H       -6.81714         4.46343         6.59742
   H      -11.08540         6.64192         4.11994
   H      -12.94446         7.48799         5.42353
   H      -12.59412         6.41229         6.78134
   H      -13.31548         5.43018         3.98673
   H      -14.50408         5.60340         5.28667
   H      -13.34347         4.00338         6.69146
   H      -14.09670         1.80699         3.46532
   H      -12.64292         2.82699         3.35385
   H      -14.26270         3.53897         3.11257
   H      -12.58290         1.35804         6.04185
   H       -9.75977         0.20389         5.63766
   H      -13.56585        -0.71567         6.58033
   H      -10.69775        -7.56361         5.03076
   H       -7.72202        -5.28681         3.85250
   H       -4.93262        -9.57922         2.38175
   H       -8.00382       -11.21541         5.99103
   H       -4.91236       -14.54883         3.21205
   H       -4.23968       -12.27963         2.10894
*
