# ORCA input file
# SCF done       -208.738250530174          0.000504496954
! CAM-B3LYP def2-SVP def2/J RIJCOSX Grid4 TightSCF
%maxcore 5000
%tddft
    Mode sTDDFT
    Ethresh 5.0
    maxcore 5000
end

%pal
  nprocs 6
  end
* xyz 0 1
   C      -18.07988        -1.31786        -8.55496
   C      -19.37145        -1.52687        -8.09557
   C      -19.60706        -2.09289        -6.85012
   C      -18.55633        -2.47248        -6.02873
   C      -17.26138        -2.26754        -6.47595
   C      -17.01849        -1.68475        -7.74201
   C      -15.58051        -1.57425        -7.94545
   C      -14.94977        -1.19905        -9.09894
   C      -15.62540        -0.84124       -10.28630
   N      -16.11033        -0.54212       -11.28233
   C      -13.55165        -1.16046        -9.29755
   N      -12.43318        -1.10844        -9.55058
   C      -14.95351        -1.94846        -6.68059
   C      -15.98191        -2.58371        -5.86304
   C      -15.75811        -3.49507        -4.86801
   C      -14.47954        -3.99926        -4.54114
   N      -13.47689        -4.50378        -4.30242
   C      -16.78908        -4.12616        -4.14009
   N      -17.59607        -4.65088        -3.51610
   C      -13.68327        -1.62725        -6.31128
   C      -13.14712        -1.62553        -4.99797
   C      -13.82676        -1.36962        -3.72249
   N      -13.02965        -1.33580        -2.69376
   C      -11.78142        -1.58225        -3.18037
   C      -11.82221        -1.73447        -4.63104
   C      -10.50679        -2.01140        -5.14986
   S      -10.18778        -2.36755        -6.72608
   C       -9.64790        -1.96088        -3.99572
   C      -10.46671        -1.72259        -2.79425
   N       -9.69432        -1.71826        -1.67439
   C       -8.48214        -1.95892        -2.08643
   C       -8.35153        -2.12432        -3.53533
   C       -7.12930        -2.35188        -4.24819
   C       -7.07834        -2.08507        -5.60676
   C       -5.91265        -2.34778        -6.33114
   C       -5.65722        -2.23152        -7.69826
   C       -6.63999        -1.81389        -8.72883
   C       -6.11721        -0.68851        -9.64871
   N       -7.19739         0.23850        -9.90684
   C       -7.10836        -3.03780        -9.54082
   N       -7.55456        -4.07890        -8.63458
   C       -4.29958        -2.67721        -7.89858
   C       -3.56447        -2.81243        -9.01838
   C       -2.16365        -3.31935        -8.97583
   C       -1.65289        -3.63077        -7.60978
   C       -2.40903        -3.51316        -6.50055
   C       -3.74238        -3.05011        -6.59034
   C       -4.73848        -2.85721        -5.64646
   C       -4.80054        -3.08082        -4.25340
   C       -5.96049        -2.84130        -3.58284
   C       -1.30362        -2.36011        -9.76136
   C       -0.30186        -1.63957        -9.25088
   C        0.50989        -0.74575       -10.02156
   C        0.28289        -0.26803       -11.38931
   N        1.21722         0.51458       -11.84925
   C        2.13805         0.61198       -10.85033
   C        1.69683        -0.15178        -9.66931
   C        2.68713        -0.06412        -8.62785
   S        2.55549        -0.60045        -7.07507
   C        3.77367         0.66098        -9.23112
   C        3.37904         1.12618       -10.57842
   N        4.37005         1.86627       -11.13937
   C        5.33547         1.88505       -10.26895
   C        5.06301         1.11621        -9.04849
   C        5.98469         1.00070        -7.97365
   C        6.09281        -0.01148        -7.07198
   C        6.79155         0.09418        -5.78983
   C        7.77287         0.98542        -5.45847
   C        8.33066         1.94141        -6.33556
   N        8.83369         2.73211        -6.99829
   C        8.40552         1.02963        -4.19648
   N        8.96024         1.11629        -3.19603
   C        6.24818        -0.95192        -4.93694
   C        5.40918        -1.78588        -5.71129
   C        4.74935        -2.85692        -5.13273
   C        4.93212        -3.09150        -3.77864
   C        5.76180        -2.27908        -3.01763
   C        6.42762        -1.20377        -3.58532
   C        5.43132        -1.31444        -7.08667
   C        5.13687        -2.05961        -8.19584
   C        4.51265        -3.32333        -8.14885
   N        3.97375        -4.33624        -8.17682
   C        5.43469        -1.66813        -9.51662
   N        5.69357        -1.42773       -10.60893
   H      -17.91600        -0.87270        -9.52258
   H      -20.20527        -1.24056        -8.71801
   H      -20.62174        -2.23941        -6.51322
   H      -18.75006        -2.90552        -5.06064
   H      -13.00101        -1.27583        -7.07588
   H      -14.87406        -1.15059        -3.60499
   H       -7.67226        -1.98404        -1.37856
   H       -7.93898        -1.66940        -6.10322
   H       -7.51674        -1.40805        -8.21581
   H       -5.68524        -1.12634       -10.56485
   H       -5.32609        -0.13492        -9.13404
   H       -7.94950        -0.20635       -10.42035
   H       -6.88103         1.04476       -10.43114
   H       -6.27075        -3.44274       -10.11848
   H       -7.88559        -2.70519       -10.24963
   H       -8.31532        -3.73458        -8.05665
   H       -7.90568        -4.87398        -9.15712
   H       -3.95310        -2.54778        -9.99087
   H       -2.15319        -4.26407        -9.54907
   H       -0.63724        -3.99205        -7.55633
   H       -2.00764        -3.77177        -5.53192
   H       -3.93243        -3.45644        -3.73239
   H       -6.01611        -3.04006        -2.52387
   H       -1.56170        -2.27455       -10.80785
   H       -0.03272        -1.73155        -8.20735
   H       -0.57373        -0.49514       -11.99899
   H        6.25299         2.41051       -10.46756
   H        6.63476         1.85854        -7.85339
   H        4.09375        -3.48497        -5.71346
   H        4.41888        -3.91745        -3.31029
   H        5.88900        -2.48237        -1.96530
   H        7.06173        -0.57821        -2.97863
*
