# ORCA input file
# SCF done       -198.254014731754          0.000542017606
! CAM-B3LYP def2-SVP def2/J RIJCOSX Grid4 TightSCF
%maxcore 5000
%tddft
    Mode sTDDFT
    Ethresh 5.0
    maxcore 5000
end

%pal
  nprocs 6
  end
* xyz 0 1
   C        3.13773       -10.45634        -3.42942
   C        4.29296        -9.75062        -3.62261
   C        4.64603        -9.13031        -4.84139
   N        4.98346        -8.60521        -5.80376
   C        5.30282        -9.57496        -2.65007
   N        6.17298        -9.41182        -1.92033
   C        2.11929       -10.73292        -4.43710
   C        1.14615       -11.58716        -3.88631
   C        0.05987       -12.02200        -4.61933
   C       -0.06043       -11.59634        -5.93600
   C        0.90210       -10.74259        -6.49226
   C        1.99391       -10.30661        -5.74997
  Cl        0.73730       -10.21881        -8.11693
  Cl       -1.39309       -12.11648        -6.88212
   C        1.48097       -11.88883        -2.48093
   O        0.84096       -12.55977        -1.70442
   C        2.73150       -11.12876        -2.20551
   C        3.26477       -10.97295        -0.96626
   C        2.88214       -11.68662         0.20268
   C        2.49081       -13.09945         0.34962
   N        2.23403       -13.45111         1.57513
   C        2.41427       -12.33501         2.33373
   C        2.84481       -11.20888         1.49158
   C        3.04970       -10.02717         2.29061
   S        3.57959        -8.57181         1.74716
   C        2.73615       -10.45214         3.63042
   C        2.35731       -11.87988         3.62688
   N        2.06151       -12.30417         4.88680
   C        2.22656       -11.26846         5.65364
   C        2.65055       -10.05452         4.94737
   C        2.87033        -8.80350         5.56822
   N        3.20106        -7.69464         4.97819
   C        3.30424        -6.68339         5.83868
   C        3.04757        -7.00656         7.16358
   S        2.67262        -8.65397         7.34330
   C        3.32132        -5.82427         8.00138
   C        3.00192        -4.71699         6.98471
   C        3.67598        -5.21999         5.66458
   C        5.21266        -5.10875         5.66713
   C        5.75702        -3.68536         5.62418
   C        3.04869        -4.60629         4.40727
   C        3.59446        -5.17461         3.10311
   N        3.29181        -3.47511         7.66537
   C        3.40568        -3.65950         9.09852
   S        2.51295        -5.21347         9.51213
   C        2.94470        -2.25926         7.19202
   C        2.04198        -1.96404         6.06391
   N        1.88735        -0.70061         5.83015
   C        2.65822        -0.04907         6.75568
   C        3.30214        -1.01224         7.66233
   C        4.11745        -0.31293         8.61328
   S        5.10801        -0.90465         9.79007
   C        3.92902         1.08098         8.28237
   C        3.03886         1.21350         7.11983
   N        2.88852         2.52792         6.78536
   C        3.62810         3.19653         7.61531
   C        4.33986         2.35347         8.59587
   C        5.18815         2.75104         9.66636
   C        6.08195         3.77230         9.63524
   C        6.91312         4.24696        10.73058
   C        6.75364         3.95037        12.05567
   C        7.57922         4.45609        13.08411
   N        8.21825         4.83345        13.95880
   C        5.72524         3.13507        12.57978
   N        4.90276         2.50731        13.07557
   C        7.89898         5.16140        10.16456
   C        7.65699         5.30394         8.78570
   C        6.51017         4.46414         8.38752
   O        6.05818         4.32288         7.27490
   C        8.43663         6.12007         7.99035
   C        9.48442         6.81280         8.58322
   C        9.73551         6.67380         9.95529
   C        8.94795         5.85088        10.75237
  Cl       11.03778         7.52908        10.67263
  Cl       10.47492         7.83946         7.63108
   H       -0.67439       -12.67695        -4.17733
   H        2.71149        -9.64674        -6.20944
   H        4.01182       -10.20406        -0.80151
   H        2.45695       -13.82216        -0.44382
   H        2.04733       -11.33177         6.71315
   H        4.38779        -5.82872         8.26315
   H        1.91595        -4.76463         6.79132
   H        5.61046        -5.61016         6.55240
   H        5.57771        -5.66286         4.80180
   H        5.47275        -3.12179         6.50863
   H        5.40700        -3.15179         4.74526
   H        6.84326        -3.72017         5.58421
   H        1.97140        -4.79216         4.44057
   H        3.20924        -3.52645         4.42239
   H        3.55228        -6.25891         3.11628
   H        4.62021        -4.86245         2.93063
   H        2.99186        -4.81599         2.27250
   H        2.95246        -2.83063         9.63966
   H        4.44745        -3.77247         9.41290
   H        1.47765        -2.68969         5.50829
   H        3.64721         4.26984         7.59123
   H        5.12208         2.13055        10.55310
   H        8.23333         6.21519         6.93531
   H        9.17326         5.76481        11.80277
*
