# ORCA input file
# SCF done       -206.988270563516          0.000651849031
! CAM-B3LYP def2-SVP def2/J RIJCOSX Grid4 TightSCF
%maxcore 5000
%tddft
    Mode sTDDFT
    Ethresh 5.0
    maxcore 5000
end

%pal
  nprocs 6
  end
* xyz 0 1
   C       -2.25169         4.14366        -0.72281
   C       -2.03887         5.42601        -0.29370
   C       -2.54874         5.94101         0.91723
   N       -2.94902         6.40967         1.88517
   C       -1.22048         6.36376        -0.95352
   N       -0.52769         7.16164        -1.40378
   C       -2.89675         3.08687         0.04662
   C       -2.53937         1.82558        -0.51674
   C       -2.97194         0.64891         0.02387
   C       -3.80375         0.67929         1.16528
   C       -4.17983         1.93626         1.72263
   C       -3.71255         3.13900         1.14598
   C       -5.01764         1.95248         2.85653
   C       -5.46009         0.78509         3.41644
   C       -5.08745        -0.45159         2.86834
   C       -4.27690        -0.50343         1.76692
   C       -1.70130         2.04252        -1.70686
   O       -1.16790         1.21940        -2.41373
   C       -1.68470         3.52219        -1.90780
   C       -1.27426         4.03645        -3.08826
   C       -1.52940         5.35726        -3.58506
   C       -2.72205         6.01056        -3.46544
   C       -2.63432         7.27936        -4.15447
   C       -3.69790         8.18171        -4.28429
   N       -4.57449         8.91701        -4.37346
   C       -1.36347         7.42893        -4.63351
   C       -0.59948         6.25697        -4.28048
   C        0.74777         6.08083        -4.48012
   C        1.70328         7.13775        -4.92412
   C        2.82917         6.50300        -5.37289
   C        2.68427         5.09413        -5.12725
   C        1.46426         4.85047        -4.53606
   C        3.65794         4.13485        -5.44030
   N        4.46346         3.36095        -5.70352
   C        1.58795         8.53879        -4.74026
   C        0.81259         9.14605        -3.80137
   C        0.73183        10.55020        -3.61867
   S       -0.27930        11.17807        -2.33250
   C        0.15415        12.80909        -2.73950
   C        1.04651        12.84375        -3.83540
   C        1.35080        11.56322        -4.32066
   C        1.51157        14.10634        -4.26861
   C        1.08738        15.24938        -3.57691
   S        1.76653        16.69002        -4.27601
   C        2.59521        15.75388        -5.46346
   C        2.38024        14.42333        -5.34610
   C        0.18664        15.20205        -2.49593
   C       -0.28014        13.95561        -2.08996
   C       -0.19796        16.41034        -1.79278
   C        0.63438        17.39318        -1.36771
   C       -0.13330        18.34291        -0.57672
   C        0.40321        19.48421         0.03121
   N        0.84690        20.40904         0.54680
   C       -1.42665        17.91673        -0.49923
   C       -1.54510        16.70121        -1.26561
   C       -2.70478        16.03877        -1.57654
   C       -4.01176        16.13587        -0.88519
   C       -4.95178        15.58353        -1.71377
   C       -4.29241        15.09181        -2.89802
   C       -2.94114        15.30784        -2.78753
   C       -4.95177        14.51747        -3.99512
   N       -5.49685        14.06716        -4.89851
   C       -4.23264        16.55721         0.45308
   C       -3.26019        16.64317         1.40023
   C       -3.48816        17.16189         2.69469
   C       -2.48806        17.44458         3.58224
   C       -2.63458        18.00283         4.91454
   C       -3.80890        18.25110         5.57774
   C       -3.88420        18.78674         6.88096
   N       -4.01965        19.21868         7.93585
   C       -5.10390        18.00689         5.07562
   N       -6.18916        17.83480         4.74079
   C       -1.29775        18.24353         5.44554
   C       -0.34024        17.82451         4.47800
   C       -1.03462        17.29696         3.29543
   O       -0.51418        16.84667         2.29323
   C        1.00322        17.93781         4.69317
   C        1.46120        18.48093         5.91369
   C        0.51067        18.89905         6.88958
   C       -0.87447        18.77395         6.63573
   C        0.97844        19.43787         8.10535
   C        2.31986        19.55824         8.34740
   C        3.25466        19.14712         7.38545
   C        2.83452        18.62019         6.19433
   H       -2.68313        -0.29458        -0.41488
   H       -4.02100         4.07640         1.58202
   H       -5.29933         2.90670         3.27682
   H       -6.09981         0.80794         4.28579
   H       -5.44626        -1.36279         3.32286
   H       -3.98693        -1.45239         1.34023
   H       -0.80536         3.32818        -3.76284
   H       -3.61571         5.63644        -2.99897
   H       -1.00747         8.24392        -5.23197
   H        3.71776         6.96212        -5.76359
   H        1.09626         3.88063        -4.26935
   H        2.26453         9.13774        -5.33699
   H        0.24071         8.54519        -3.10761
   H        2.01266        11.38848        -5.14889
   H        3.20445        16.26186        -6.18507
   H        2.81463        13.68902        -5.99941
   H       -0.94936        13.87667        -1.24798
   H        1.69297        17.46745        -1.52981
   H       -2.24118        18.44524        -0.04418
   H       -6.00203        15.47639        -1.51599
   H       -2.20849        15.10522        -3.54455
   H       -5.25860        16.77969         0.72329
   H       -2.25363        16.33084         1.16752
   H       -4.51328        17.38604         2.96073
   H        1.70683        17.61781         3.93910
   H       -1.56659        19.10537         7.39331
   H        0.25511        19.75369         8.84276
   H        2.66819        19.97177         9.28195
   H        4.30922        19.25041         7.59291
   H        3.54910        18.30276         5.44916
*
