# ORCA input file
# SCF done       -184.252178108691          0.000845135503
! CAM-B3LYP def2-SVP def2/J RIJCOSX Grid4 TightSCF
%maxcore 5000
%tddft
    Mode sTDDFT
    Ethresh 5.0
    maxcore 5000
end

%pal
  nprocs 6
  end
* xyz 0 1
   C        4.44284        13.02047         0.66903
   C        4.33829        14.22178         1.31632
   C        5.43149        14.91348         1.88122
   N        6.27590        15.52310         2.36297
   C        3.13135        14.91738         1.54091
   N        2.18690        15.53193         1.76065
   C        5.67177        12.26747         0.45497
   C        5.34797        11.00337        -0.11800
   C        6.30951        10.08548        -0.42844
   C        7.66541        10.40097        -0.19017
   C        7.99840        11.66557         0.37696
   C        6.98130        12.59184         0.69785
   C        9.35564        11.97001         0.60988
   C       10.33801        11.07033         0.29859
   C       10.00925         9.82540        -0.25955
   C        8.70225         9.49827        -0.49905
   C        3.88902        10.90238        -0.28423
   O        3.23833         9.90959        -0.51952
   C        3.36106        12.26183         0.05890
   C        2.09402        12.67343        -0.18339
   C        1.17249        11.98836        -1.03023
   C       -0.28551        11.94571        -0.84968
   N       -0.92069        11.32375        -1.79744
   C        0.03453        10.93568        -2.68941
   C        1.37202        11.33583        -2.22229
   C        2.36062        10.99972        -3.22076
   S        3.97029        11.37772        -3.19158
   C        1.61629        10.35524        -4.26041
   C        0.18788        10.33421        -3.91157
   N       -0.54444         9.74927        -4.90637
   C        0.31070         9.42268        -5.82561
   C        1.70298         9.76654        -5.51206
   C        2.81624         9.51080        -6.33560
   N        4.09471         9.80772        -5.92972
   C        4.94747         9.44319        -6.91481
   C        6.28413         9.38654        -7.26990
   C        6.32167         8.82026        -8.55986
   N        5.03568         8.53676        -8.97321
   C        4.17370         8.89845        -7.98982
   C        2.84069         8.93564        -7.62493
   C        7.41827         8.54369        -9.40003
   C        8.73007         8.68867        -9.06009
   C        9.80198         8.41576        -9.93567
   C       11.20511         8.39403        -9.50261
   N       12.06039         8.11775       -10.43885
   C       11.31655         7.94112       -11.56940
   C        9.87790         8.10675       -11.28655
   C        9.13686         7.97917       -12.50730
   S        7.53030         8.24033       -12.79137
   C       10.13194         7.69086       -13.51244
   C       11.47190         7.69931       -12.90907
   N       12.43063         7.53932       -13.86643
   C       11.79161         7.47780       -14.99661
   C       10.33094         7.56167       -14.86686
   C        9.39102         7.62919       -15.93498
   C        8.11960         7.16557       -15.84868
   C        7.00022         7.45480       -16.72988
   C        7.04726         8.13234       -17.91906
   C        5.91771         8.40946       -18.71857
   N        5.04185         8.66549       -19.41475
   C        8.22297         8.62254       -18.52567
   N        9.13908         9.04244       -19.07593
   C        5.80125         6.91620       -16.09988
   C        6.17613         6.18508       -14.93603
   C        7.64177         6.21925       -14.78910
   O        8.32870         5.51338       -14.08476
   C        5.25214         5.56478       -14.14615
   C        3.88312         5.66244       -14.47984
   C        3.49897         6.39549       -15.64002
   C        4.47851         7.01762       -16.44542
   C        2.12960         6.48350       -15.96607
   C        1.18362         5.87844       -15.18489
   C        1.56260         5.15794       -14.04180
   C        2.88263         5.05282       -13.69693
   H        6.03847         9.13335        -0.86003
   H        7.26483        13.54114         1.12411
   H        9.60306        12.92909         1.04070
   H       11.37430        11.31229         0.48093
   H       10.79750         9.12686        -0.49766
   H        8.44344         8.54075        -0.92717
   H        1.73263        13.60310         0.23923
   H       -0.81136        12.36170        -0.00826
   H       -0.01730         8.93687        -6.72750
   H        4.30857        10.27358        -5.04696
   H        7.13098         9.71266        -6.70190
   H        4.80615         8.13789        -9.86796
   H        1.98654         8.61027        -8.18276
   H        7.18230         8.18249       -10.39263
   H        8.99575         9.00752        -8.06156
   H       11.53518         8.57633        -8.49382
   H       12.31936         7.35196       -15.92585
   H        9.73066         8.13915       -16.82775
   H        5.56292         5.01174       -13.27205
   H        4.15627         7.56362       -17.31784
   H        1.84364         7.03864       -16.84734
   H        0.13781         5.95056       -15.44316
   H        0.80285         4.68449       -13.43784
   H        3.18002         4.49552       -12.82030
*
