# ORCA input file
# SCF done       -186.987267228728          0.000626014187
! CAM-B3LYP def2-SVP def2/J RIJCOSX Grid4 TightSCF
%maxcore 5000
%tddft
    Mode sTDDFT
    Ethresh 5.0
    maxcore 5000
end

%pal
  nprocs 6
  end
* xyz 0 1
   C       10.71132         9.23205         3.32691
   C       10.20017        10.49039         3.48052
   F       11.02870        11.55044         3.44793
   C        8.83225        10.72803         3.67205
   C        7.97474         9.66396         3.70613
   C        8.44723         8.34454         3.55134
   C        9.84254         8.12385         3.36091
   C       10.34204         6.80901         3.21368
   C        9.47247         5.75275         3.25199
   C        8.07644         5.98063         3.42309
   C        7.56869         7.23836         3.57588
   C        7.36204         4.68880         3.38385
   O        6.17968         4.48964         3.54283
   C        8.40103         3.67884         3.04074
   C        9.69842         4.31228         3.16747
   C       10.88854         3.68374         3.42355
   C       12.10600         4.36534         3.62179
   N       13.12402         4.87612         3.76620
   C       11.02078         2.29116         3.60446
   N       11.18156         1.17570         3.82160
   C        8.03088         2.44442         2.61358
   C        8.81106         1.47946         1.90409
   C        9.84678         1.78867         1.02844
   C       10.57608         0.81809         0.35194
   C       10.36363        -0.54944         0.50564
   C        9.29006        -0.89847         1.36179
   C        8.51719         0.10400         2.02283
   N        7.58101        -0.51730         2.75173
   N        7.79006        -1.78349         2.52792
   N        8.77228        -2.08350         1.72531
   C        6.98622        -2.79464         3.14210
   C       11.20002        -1.53462        -0.14583
   C       11.07001        -2.89437         0.10924
   C       11.89712        -3.86260        -0.45252
   C       12.93601        -3.56871        -1.32751
   C       13.08217        -2.19304        -1.63516
   C       12.23192        -1.19678        -1.05641
   N       12.62125        -0.01188        -1.55301
   N       13.61118        -0.29630        -2.35118
   N       13.93706        -1.55397        -2.44932
   C       14.31984         0.72075        -3.06551
   C       13.81558        -4.59272        -1.84791
   C       14.94543        -4.28521        -2.60220
   C       15.83916        -5.24280        -3.06209
   C       15.71363        -6.60295        -2.78285
   C       14.54379        -6.95611        -2.07059
   C       13.61407        -5.97435        -1.60885
   N       12.62810        -6.63948        -0.98397
   N       12.95677        -7.89390        -1.08354
   N       14.06901        -8.15801        -1.71422
   C       12.16763        -8.93157        -0.49490
   C       16.70132        -7.52473        -3.24189
   C       16.99951        -8.78261        -2.81766
   C       17.78284        -9.68134        -3.70992
   O       18.40970        -9.36275        -4.69488
   C       17.57936       -11.03961        -3.16642
   C       17.99835       -12.23778        -3.66748
   C       17.66704       -13.42716        -2.97967
   C       16.89997       -13.34941        -1.78086
   C       16.56929       -14.53941        -1.10359
   C       16.99234       -15.73804        -1.60625
   C       17.74938       -15.83532        -2.78139
   C       18.07770       -14.69022        -3.45246
   F       16.67708       -16.87598        -0.95915
   C       16.48685       -12.09282        -1.28008
   C       16.82473       -10.95452        -1.96055
   C       16.58851        -9.54597        -1.66341
   C       16.23857        -9.03850        -0.43918
   C       16.36047        -7.67542        -0.10153
   N       16.48794        -6.58613         0.23735
   C       15.74608        -9.81432         0.62528
   N       15.26458       -10.38343         1.49981
   H       11.77089         9.08605         3.18599
   H        8.48691        11.74307         3.78803
   H        6.91674         9.82160         3.85244
   H       11.40132         6.67049         3.06489
   H        6.50840         7.38834         3.71394
   H        6.99643         2.17136         2.79553
   H       10.07811         2.82785         0.84116
   H       11.36199         1.13600        -0.31384
   H        6.17826        -2.30218         3.67763
   H        7.59131        -3.37856         3.83705
   H        6.58667        -3.46180         2.37839
   H       10.29751        -3.21218         0.79024
   H       11.73414        -4.89344        -0.18428
   H       13.60924         1.44701        -3.45712
   H       14.87190         0.24920        -3.87522
   H       15.01663         1.23217        -2.39848
   H       15.13785        -3.24853        -2.82543
   H       16.70348        -4.91429        -3.62105
   H       12.66996        -9.32366         0.39181
   H       12.04145        -9.74137        -1.21176
   H       11.20475        -8.51120        -0.21640
   H       17.27556        -7.19500        -4.10353
   H       18.57805       -12.27963        -4.57749
   H       15.99102       -14.50245        -0.19353
   H       18.05592       -16.80884        -3.12970
   H       18.66034       -14.73944        -4.36008
   H       15.90595       -12.06170        -0.37173
*
