# ORCA input file
# SCF done       -169.698910883313          0.007195598514
! CAM-B3LYP def2-SVP def2/J RIJCOSX Grid4 TightSCF
%maxcore 5000
%tddft
    Mode sTDDFT
    Ethresh 5.0
    maxcore 5000
end

%pal
  nprocs 6
  end
* xyz 0 1
   C        3.83766         7.81823         7.17893
   C        3.85826         6.45612         7.13793
   C        3.49414         5.97673         5.86645
   C        3.20618         7.01155         4.96839
   S        3.37666         8.55446         5.68393
   C        2.88173         6.44152         3.70402
   C        2.96507         5.04341         3.81535
   C        3.37170         4.70628         5.17247
   C        3.61016         3.45852         5.66519
   C        3.52323         2.30743         4.85393
   N        3.46722         1.37924         4.18338
   C        3.94906         3.23136         7.01744
   N        4.19076         3.02981         8.12022
   C        2.62435         4.38605         2.63424
   C        2.30999         5.28244         1.63524
   S        2.41357         6.95170         2.14510
   C        1.94754         5.00499         0.28108
   N        1.82657         6.05001        -0.53420
   C        1.45159         5.76449        -1.77768
   N        1.20211         4.52615        -2.22167
   C        1.38479         3.56696        -1.33794
   N        1.76170         3.73023        -0.08461
   C        1.28548         6.85484        -2.70404
   C        1.68862         8.12748        -2.39519
   C        1.50149         9.22165        -3.23379
   C        0.78755         9.07876        -4.50616
   C        0.34502         7.89661        -5.00138
   S        0.52310         6.39159        -4.20330
   C        0.72021        10.39191        -5.04017
   C        1.36623        11.29529        -4.18497
   C        1.31097        12.61555        -4.68656
   C        0.64788        12.67715        -5.87050
   S        0.06421        11.14938        -6.43455
   C        1.87974        10.56841        -3.05566
   C        2.67864        11.00961        -1.97684
   C        3.15630        12.25791        -1.74501
   C        4.04503        12.53306        -0.65813
   C        4.56029        13.77482        -0.40385
   C        5.46593        13.98006         0.67540
   C        5.99850        15.22773         0.97741
   C        6.90447        15.41229         2.03204
   N        7.64991        15.55552         2.89440
   C        5.65933        16.37084         0.23791
   N        5.38063        17.30734        -0.36765
   C        5.80627        12.81521         1.43072
   C        5.27631        11.60045         1.09917
   O        4.36992        11.46318         0.11325
   C        5.65335        10.41215         1.81979
   C        5.55985         9.11977         1.40949
   C        5.82438         7.94300         2.23356
   C        6.18556         7.92534         3.55565
   C        6.32186         6.74327         4.31297
   N        6.39850         5.82703         4.99891
   C        6.44638         9.04822         4.36884
   N        6.67498         9.90264         5.10090
   C        5.58133         6.76108         1.41938
   C        5.21965         7.17134         0.11260
   C        5.23758         8.64168         0.02922
   O        5.09603         9.29754        -0.97756
   C        4.91383         6.28735        -0.89281
   C        4.93740         4.92320        -0.58804
   C        5.29393         4.51788         0.72218
   C        5.63804         5.41238         1.72741
   S        5.21741         2.79267         0.89959
   C        4.70538         2.63999        -0.75696
   C        4.61379         3.81972        -1.42140
  Br        4.32483         0.95160        -1.45736
   H        4.07177         8.45425         8.00915
   H        4.12720         5.83788         7.97462
   H        2.59386         3.32268         2.48121
   H        1.21408         2.55104        -1.67244
   H        2.16406         8.25276        -1.43214
   H       -0.15438         7.82760        -5.95512
   H        1.72606        13.48308        -4.20859
   H        0.45698        13.54684        -6.46784
   H        2.98275        10.23618        -1.28570
   H        2.91391        13.09173        -2.38380
   H        4.28292        14.60764        -1.02991
   H        6.51048        12.89688         2.24371
   H        6.06583        10.61497         2.79809
   H        4.64917         6.63852        -1.87873
   H        5.91999         5.04604         2.69724
   H        4.31540         3.90805        -2.45152
*
