# ORCA input file
# SCF done       -222.248059225437          0.000392791813
! CAM-B3LYP def2-SVP def2/J RIJCOSX Grid4 TightSCF
%maxcore 5000
%tddft
    Mode sTDDFT
    Ethresh 5.0
    maxcore 5000
end

%pal
  nprocs 6
  end
* xyz 0 1
   C       -6.18941         0.00291        -3.24601
   C       -4.96051         0.02678        -2.64880
   F       -4.24117         1.15595        -2.63216
   C       -4.43390        -1.13295        -2.04466
   F       -3.22607        -1.08107        -1.46778
   C       -5.14423        -2.30042        -2.04601
   C       -6.41328        -2.35752        -2.65445
   C       -6.94726        -1.18549        -3.26502
   C       -8.21846        -1.21867        -3.88101
   C       -8.93376        -2.38766        -3.88519
   C       -8.39131        -3.55424        -3.27882
   C       -7.16554        -3.55215        -2.67731
   C       -9.33082        -4.67711        -3.43636
   O       -9.14122        -5.82311        -3.08359
   C      -10.48394        -4.13205        -4.19385
   C      -10.24756        -2.71467        -4.42384
   C      -11.13497        -1.82470        -4.96409
   C      -12.44812        -2.14071        -5.37543
   N      -13.53490        -2.31521        -5.70206
   C      -10.86454        -0.45135        -5.14824
   N      -10.70077         0.66966        -5.33049
   C      -11.47674        -4.86958        -4.75737
   C      -11.81061        -6.22915        -4.47672
   C      -12.16313        -7.14949        -5.43278
   C      -12.34146        -8.41566        -4.78766
   C      -12.30539        -9.64121        -5.28730
   N      -12.27665       -10.79432        -5.60474
   C      -12.20328        -8.18717        -3.36164
   C      -11.83319        -6.89064        -3.17289
   C      -11.46273        -6.29615        -1.91299
   C      -10.54026        -6.96892        -0.97162
   C      -10.34776        -6.06801         0.12891
   C      -11.05655        -4.92956        -0.13549
   C      -11.74700        -5.07215        -1.41125
   C      -11.10746        -3.77176         0.65065
   N      -11.14382        -2.81017         1.27711
   C       -9.91125        -8.13666        -1.28028
   C       -8.99697        -8.87845        -0.50170
   C       -8.33574        -9.98069        -0.97012
   C       -7.70033       -10.96037        -0.13231
   C       -7.40954       -12.05291        -0.90192
   C       -6.84773       -13.25984        -0.47082
   N       -6.40847       -14.26880        -0.14017
   C       -7.78395       -11.77759        -2.27774
   C       -8.30549       -10.52377        -2.34429
   C       -8.63151        -9.79493        -3.54485
   C       -9.43460       -10.30284        -4.67747
   C       -9.45736        -9.23954        -5.66576
   C       -8.78063        -8.17407        -5.15293
   C       -8.26810        -8.51988        -3.84018
   C       -8.64101        -6.91013        -5.74246
   N       -8.55760        -5.86672        -6.21391
   C      -10.15913       -11.43425        -4.68379
   C      -11.18721       -11.73912        -5.73828
   C      -11.75243       -13.13322        -5.64954
   C      -10.99578       -14.19969        -5.29012
   C      -11.47993       -15.51677        -5.19677
   C      -12.82549       -15.84383        -5.68682
   C      -13.73100       -14.92169        -6.08350
   S      -13.43998       -13.23019        -6.08315
   C      -12.91840       -17.26251        -5.61788
   C      -11.73263       -17.78245        -5.10336
   C      -11.76375       -19.18737        -4.98916
   C      -12.95127       -19.69080        -5.41944
   S      -14.07149       -18.48964        -5.96657
   C      -10.83226       -16.69474        -4.79948
   C       -9.57471       -16.87851        -4.17859
   C       -8.90353       -15.91787        -3.48019
   C       -7.61961       -16.00145        -2.90447
   C       -6.76083       -17.04727        -2.67901
   C       -5.42605       -16.84052        -2.14398
   C       -4.69250       -15.68516        -2.22941
   C       -3.39035       -15.53832        -1.71004
   N       -2.32786       -15.36499        -1.31134
   C       -5.10417       -14.52228        -2.91029
   N       -5.35534       -13.56018        -3.48747
   C       -4.95101       -18.11209        -1.61939
   C       -5.89579       -19.11132        -1.95598
   C       -7.02766       -18.50068        -2.68510
   O       -7.97206       -19.10778        -3.15109
   C       -5.72867       -20.43084        -1.61350
   C       -4.57824       -20.77766        -0.89692
   C       -3.64475       -19.76954        -0.55785
   C       -3.80996       -18.43576        -0.91080
   S       -2.30262       -20.41643         0.33662
   C       -3.00298       -22.01035         0.24177
   C       -4.18104       -22.05847        -0.42384
  Br       -2.11376       -23.46093         1.03173
   H       -6.57833         0.89962        -3.70257
   H       -4.72619        -3.17899        -1.58007
   H       -8.59226        -0.31809        -4.34076
   H       -6.77433        -4.45039        -2.22393
   H      -12.06856        -4.41316        -5.54249
   H      -12.19655        -6.99116        -6.49377
   H      -12.37549        -8.93975        -2.61593
   H       -9.73055        -6.24883         0.98830
   H      -12.38263        -4.31757        -1.83677
   H      -10.14988        -8.55508        -2.24616
   H       -8.86827        -8.61408         0.54104
   H       -7.55950       -10.86653         0.92796
   H       -7.57573       -12.43832        -3.09870
   H       -9.92677        -9.29147        -6.63018
   H       -7.69956        -7.84754        -3.22812
   H      -10.12290       -12.09649        -3.83059
   H      -10.76074       -11.58724        -6.74176
   H       -9.94603       -14.02767        -5.09892
   H      -14.72376       -15.18788        -6.40993
   H      -10.95739       -19.78941        -4.61229
   H      -13.25604       -20.71850        -5.45326
   H       -9.15951       -17.87467        -4.22963
   H       -9.38152       -14.95559        -3.34948
   H       -7.25116       -15.04676        -2.54795
   H       -6.46241       -21.17326        -1.88617
   H       -3.07673       -17.69999        -0.62544
   H       -4.74848       -22.95862        -0.57486
*
