# ORCA input file
# SCF done       -172.319781073073          0.000232467202
! CAM-B3LYP def2-SVP def2/J RIJCOSX Grid4 TightSCF
%maxcore 5000
%tddft
    Mode sTDDFT
    Ethresh 5.0
    maxcore 5000
end

%pal
  nprocs 6
  end
* xyz 0 1
   C       -3.83902         0.82784        -2.73376
   C       -3.56757        -0.50514        -2.58773
   C       -3.07931        -1.32834        -3.62614
   N       -2.67949        -2.04259        -4.42999
   C       -3.75893        -1.24867        -1.40250
   N       -3.90221        -1.92245        -0.48483
   C       -3.72696         1.59014        -3.97031
   C       -4.20282         2.90483        -3.73979
   C       -4.26183         3.86429        -4.72215
   C       -3.82996         3.50840        -6.00195
   C       -3.33989         2.19726        -6.22724
   C       -3.27985         1.22997        -5.23054
   S       -2.85809         1.97824        -7.88183
   C       -3.32493         3.62015        -8.24596
   C       -3.81126         4.30091        -7.17952
  Br       -3.13683         4.29084        -9.99022
   C       -4.62508         3.04639        -2.34127
   O       -5.04287         4.05779        -1.82368
   C       -4.36721         1.71777        -1.70381
   C       -4.46585         1.46296        -0.37806
   C       -5.04877         2.36535         0.57582
   C       -6.11289         3.24587         0.50576
   C       -7.09018         3.48434        -0.56920
   O       -7.69747         4.50620        -0.73698
   O       -7.29321         2.38787        -1.31942
   C       -6.07472         3.91059         1.76927
   N       -5.10827         3.42868         2.50580
   O       -4.49105         2.47306         1.79428
   C       -6.87021         5.09066         2.03849
   O       -8.21386         5.04803         1.88909
   C       -6.46146         6.39666         2.07218
   C       -5.29217         7.28624         2.14802
   O       -4.12244         7.05425         2.28573
   N       -5.84733         8.55545         2.00788
   C       -7.22978         8.59524         1.82113
   O       -7.87063         9.59932         1.64633
   C       -7.62609         7.18782         1.87307
   C       -8.68657         6.31367         1.75026
   C      -10.04730         6.53313         1.37916
   C      -10.34224         7.54247         0.52484
   C      -11.59694         7.79198        -0.07864
   C      -11.67918         8.36666        -1.31890
   C      -12.83652         8.67149        -2.08423
   C      -12.57457         9.07363        -3.35699
   C      -11.19530         9.07877        -3.68218
   S      -10.23710         8.66329        -2.28116
   C      -10.60425         9.24581        -4.91858
   C      -11.21045         9.54099        -6.16184
   C      -10.35064         9.50871        -7.21501
   C       -9.01371         9.17330        -6.86858
   S       -8.88634         8.96555        -5.13171
   C       -7.97797         8.98283        -7.74352
   C       -6.66498         8.58512        -7.43158
   S       -6.04798         8.31116        -5.80971
   C       -4.47551         7.87147        -6.34856
   C       -4.39888         7.92376        -7.72193
   C       -5.63285         8.32235        -8.31871
   O       -5.53264         8.34213        -9.66421
   C       -4.25459         7.96178        -9.93274
   N       -3.86208         7.87278       -11.29161
   O       -2.71484         7.52833       -11.49913
   O       -4.68517         8.14112       -12.13841
   C       -3.51382         7.69736        -8.81298
   H       -4.64033         4.85154        -4.50766
   H       -2.89880         0.24730        -5.45274
   H       -4.14557         5.32120        -7.21880
   H       -4.04585         0.56126         0.04748
   H       -7.96252         2.58154        -1.99502
   H       -5.28199         9.39278         2.01164
   H      -10.77943         5.79416         1.66829
   H       -9.52352         8.16530         0.18587
   H      -12.50472         7.45641         0.40287
   H      -13.82316         8.57446        -1.66667
   H      -13.32841         9.33561        -4.07777
   H      -12.25951         9.76213        -6.24262
   H      -10.62949         9.69592        -8.23672
   H       -8.17594         9.12484        -8.79781
   H       -3.71573         7.62191        -5.63686
   H       -2.48958         7.38777        -8.79611
*
