# ORCA input file
# SCF done       -155.722586366463          0.000679118394
! CAM-B3LYP def2-SVP def2/J RIJCOSX Grid4 TightSCF
%maxcore 5000
%tddft
    Mode sTDDFT
    Ethresh 5.0
    maxcore 5000
end

%pal
  nprocs 6
  end
* xyz 0 1
   C       -6.06471        -7.44895        -1.63976
   C       -5.91100        -7.71386        -0.29561
   C       -5.67745        -8.99879         0.23167
   N       -5.48430       -10.01512         0.73244
   C       -5.96472        -6.77572         0.75182
   N       -6.00258        -6.08947         1.67583
   C       -6.02740        -8.44951        -2.69987
   C       -6.23755        -7.80233        -3.94286
   C       -6.26061        -8.47586        -5.13815
   C       -6.06770        -9.86182        -5.10935
   C       -5.86117       -10.50138        -3.86508
   C       -5.83709        -9.81865        -2.65517
   S       -5.64770       -12.21629        -4.05674
   C       -5.83548       -12.05012        -5.78269
   C       -6.04760       -10.77852        -6.19595
  Br       -5.73527       -13.57189        -6.87574
   C       -6.41681        -6.35614        -3.70869
   O       -6.61937        -5.51041        -4.56172
   C       -6.30044        -6.16427        -2.26081
   C       -6.39344        -4.97327        -1.58059
   C       -6.62669        -3.66782        -2.02313
   S       -6.79643        -3.17632        -3.68877
   C       -6.93709        -1.54482        -3.20494
   C       -6.85411        -1.33649        -1.85538
   C       -7.00018         0.01811        -1.24336
   C       -6.68132        -2.55348        -1.15097
   C       -6.61547        -2.70653         0.27494
   C       -6.12737        -1.82490         1.17346
   C       -6.07991        -2.13186         2.56721
   C       -5.56399        -1.29656         3.49157
   C       -5.44849        -1.53717         4.90601
   C       -5.27436        -2.70557         5.54200
   C       -5.13093        -4.04141         4.88819
   C       -5.15125        -2.72062         7.05017
   N       -5.99231        -3.71910         7.66691
   C       -7.33354        -3.73065         7.54237
   C       -8.13625        -4.69667         8.06562
   C       -9.53632        -4.69060         7.95401
   C      -10.36551        -5.61825         8.53065
   C      -11.77588        -5.68163         8.45428
   C      -12.33437        -6.70812         9.15598
   C      -11.39683        -7.51640         9.83387
   S       -9.77296        -6.93843         9.53805
   C      -11.64570        -8.60963        10.64290
   C      -12.88154        -9.19388        10.97923
   C      -12.78070       -10.26369        11.81970
   C      -11.45983       -10.59446        12.20482
   S      -10.34431        -9.47794        11.43638
   C      -11.13543       -11.63019        13.05027
   C       -9.90490       -12.08184        13.53649
   S       -9.94445       -13.47231        14.61840
   C       -8.22157       -13.53087        14.85717
   C       -7.63305       -12.50361        14.12247
   C       -8.56589       -11.70545        13.39363
   N       -7.82792       -10.76887        12.74983
   N       -6.52085       -10.90824        13.00930
   C       -6.37361       -11.92605        13.81842
   C       -7.66312       -14.53317        15.70079
   C       -6.36034       -14.69490        15.95414
   H       -6.42292        -7.95187        -6.06701
   H       -5.67563       -10.35418        -1.73480
   H       -6.18453       -10.49611        -7.22386
   H       -6.25455        -5.04857        -0.51141
   H       -7.08736        -0.78745        -3.95109
   H       -7.50795         0.68488        -1.93657
   H       -6.02360         0.44737        -1.01957
   H       -7.57276        -0.03906        -0.31997
   H       -6.96780        -3.65092         0.67059
   H       -5.69770        -0.88521         0.86085
   H       -6.50202        -3.08031         2.86187
   H       -5.22573        -0.31862         3.16704
   H       -5.45310        -0.63620         5.51086
   H       -4.72741        -3.94455         3.88381
   H       -6.09346        -4.54821         4.81458
   H       -4.46981        -4.67771         5.47449
   H       -5.40847        -1.73382         7.45337
   H       -4.11617        -2.93861         7.32986
   H       -5.56022        -4.53185         8.07658
   H       -7.75432        -2.88891         7.00903
   H       -7.68530        -5.51684         8.60929
   H      -10.00052        -3.90009         7.37864
   H      -12.33574        -4.96330         7.88099
   H      -13.39080        -6.90208         9.20769
   H      -13.81133        -8.81361        10.59577
   H      -13.62128       -10.82991        12.18080
   H      -11.98659       -12.19875        13.40698
   H       -8.13707       -10.03303        12.13757
   H       -5.39665       -12.20879        14.15276
   H       -8.38488       -15.20044        16.15480
   H       -5.61252       -14.05569        15.52149
   H       -6.01399       -15.47852        16.60384
*
