# ORCA input file
# SCF done       -181.978888196692          0.000752859423
! CAM-B3LYP def2-SVP def2/J RIJCOSX Grid4 TightSCF
%maxcore 5000
%tddft
    Mode sTDDFT
    Ethresh 5.0
    maxcore 5000
end

%pal
  nprocs 6
  end
* xyz 0 1
   C       -8.99818        -1.27691        -0.56485
   C       -8.28939        -2.40711        -0.88024
   C       -8.68218        -3.71272        -0.51869
   N       -8.95559        -4.79668        -0.25809
   C       -7.06466        -2.42245        -1.58088
   N       -6.05965        -2.51280        -2.12816
   C      -10.21503        -1.23068         0.23596
   C      -10.58104         0.12403         0.42945
   C      -11.68546         0.49683         1.15673
   C      -12.46288        -0.51499         1.72869
   C      -12.09221        -1.86656         1.52678
   C      -10.97877        -2.24367         0.78587
   S      -13.19230        -2.95513         2.31482
   C      -14.12117        -1.60028         2.89924
   C      -13.63458        -0.39319         2.52438
  Br      -15.64361        -1.90511         3.95008
   C       -9.61884         1.00128        -0.25809
   O       -9.71389         2.20309        -0.38316
   C       -8.62081         0.08723        -0.88012
   C       -7.64350         0.48481        -1.74453
   C       -7.16732         1.81601        -1.82796
   O       -6.60956         2.27667        -2.97930
   C       -7.07847         2.81604        -0.87563
   C       -7.28953         3.12253         0.54763
   O       -7.67634         2.44787         1.46382
   N       -6.88115         4.44924         0.65198
   C       -6.39939         5.01608        -0.52778
   O       -6.04969         6.16496        -0.63592
   C       -6.48334         3.92933        -1.50178
   C       -6.22016         3.56026        -2.81954
   C       -5.67761         4.28557        -3.90858
   C       -5.42518         5.61393        -3.80023
   C       -4.94806         6.43988        -4.84436
   O       -4.90154         7.77443        -4.60213
   C       -4.49241         6.22772        -6.13475
   C       -4.23386         5.19873        -7.14914
   O       -4.38200         4.00420        -7.11523
   N       -3.75564         5.92294        -8.23382
   C       -3.67863         7.30707        -8.04280
   O       -3.29110         8.09306        -8.86772
   C       -4.16053         7.49240        -6.67483
   C       -4.44753         8.43992        -5.69693
   C       -4.41400         9.85191        -5.65871
   C       -4.98640        10.48080        -4.58639
   C       -5.12524        11.84472        -4.31669
   C       -5.86347        12.25185        -3.22187
   C       -6.12306        13.55723        -2.74133
   C       -6.92148        13.59810        -1.63308
   C       -7.34310        12.32545        -1.19306
   S       -6.67701        11.07555        -2.20981
   C       -8.17682        11.95406        -0.15083
   C       -8.83303        12.73573         0.82469
   C       -9.58415        12.00262         1.69319
   C       -9.57265        10.60366         1.44009
   S       -8.55224        10.26234         0.05982
   C      -10.23084         9.64908         2.17341
   C      -10.28018         8.26290         1.91933
   S      -10.96566         7.18596         3.13267
   C      -10.71950         5.76382         2.20618
   C      -10.14137         6.07492         0.99843
   C       -9.89459         7.47623         0.84476
   O       -9.36114         7.72530        -0.36862
   C       -9.24801         6.51415        -0.97703
   N       -8.68410         6.48931        -2.27281
   O       -8.55344         5.38825        -2.78224
   O       -8.36914         7.53876        -2.78694
   C       -9.70313         5.47246        -0.21410
   H      -11.93801         1.53758         1.28463
   H      -10.74220        -3.28650         0.65632
   H      -14.08300         0.54466         2.79688
   H       -7.18731        -0.22104        -2.42598
   H       -6.90301         4.95727         1.52463
   H       -5.51458         3.75358        -4.83503
   H       -5.62144         6.13421        -2.87214
   H       -3.48816         5.48477        -9.10371
   H       -3.98098        10.37391        -6.49664
   H       -5.42458         9.82077        -3.84620
   H       -4.67392        12.58735        -4.95867
   H       -5.71351        14.42674        -3.22486
   H       -7.22048        14.50282        -1.13388
   H       -8.73225        13.80580         0.86127
   H      -10.15499        12.41745         2.50519
   H      -10.76133         9.98232         3.05530
   H      -11.00170         4.80697         2.59255
   H       -9.73026         4.43504        -0.48286
*
