# ORCA input file
# SCF done       -263.648353723434          0.002401266592
! CAM-B3LYP def2-SVP def2/J RIJCOSX Grid4 TightSCF
%maxcore 5000
%tddft
    Mode sTDDFT
    Ethresh 5.0
    maxcore 5000
end

%pal
  nprocs 6
  end
* xyz 0 1
   C      -15.96146         1.94307        -2.51488
   C      -16.33534         0.88604        -1.73066
   C      -17.19103        -0.14774        -2.15945
   N      -17.86036        -1.03227        -2.45816
   C      -15.87752         0.66421        -0.41380
   N      -15.54726         0.43987         0.66207
   C      -16.40642         2.18480        -3.87961
   C      -15.69433         3.28864        -4.41401
   C      -15.90879         3.76158        -5.68524
   C      -16.86898         3.11251        -6.46987
   C      -17.57790         2.01082        -5.92819
   C      -17.36546         1.54007        -4.63925
   S      -18.70361         1.34024        -7.06810
   C      -18.22272         2.53725        -8.23953
   C      -17.26546         3.39359        -7.80464
  Br      -19.02047         2.54259        -9.93610
   C      -14.74947         3.79048        -3.39979
   O      -13.83261         4.56263        -3.56626
   C      -15.05457         3.02575        -2.15776
   C      -14.53303         3.33420        -0.94921
   C      -13.76633         4.54477        -0.70154
   C      -12.45215         4.41392        -0.22940
   C      -11.61172         5.49778        -0.09563
   C      -12.07128         6.78527        -0.36159
   C      -13.38633         6.94731        -0.72907
   C      -14.23620         5.84412        -0.90891
   N      -15.52194         6.29082        -1.16319
   C      -16.70707         5.50212        -1.33516
   C      -15.58612         7.66372        -1.17293
   O      -16.59908         8.30516        -1.30118
   C      -14.17297         8.19817        -0.97746
   C      -13.74698         8.94335        -2.26268
   C      -13.68753         7.92170        -3.40191
   O      -14.60990         7.28559        -3.85675
   N      -12.38828         7.83033        -3.80427
   C      -11.92866         6.88403        -4.78128
   C      -11.57542         8.72425        -3.12191
   C      -10.22292         8.93473        -3.25478
   C       -9.60871         9.91904        -2.46249
   C      -10.39143        10.66113        -1.56897
   C      -11.75092        10.42831        -1.43121
   C      -12.34438         9.45488        -2.20625
   C       -8.18052        10.06932        -2.57880
   C       -7.40618        11.04407        -2.04311
   C       -5.98862        11.08403        -2.04572
   C       -5.10308        10.08984        -2.36815
   C       -3.69746        10.13953        -2.13978
   C       -3.04273         8.96621        -2.34209
   C       -3.88283         7.91362        -2.77780
   S       -5.52337         8.49925        -2.98104
   C       -3.61765         6.57286        -2.92641
   C       -2.48448         5.82590        -2.51223
   C       -2.68686         4.48471        -2.49753
   C       -3.98971         4.07549        -2.91942
   S       -4.88240         5.49234        -3.48404
   C       -4.50285         2.81915        -2.91174
   C       -5.83070         2.47533        -3.37278
   C       -5.98888         1.36052        -4.21227
   C       -7.16610         1.10600        -4.88252
   C       -8.24460         1.98007        -4.77512
   C       -8.13535         3.04085        -3.90653
   C       -6.97753         3.24412        -3.14548
   N       -7.19204         4.26345        -2.22391
   C       -6.49916         4.41722        -0.96992
   C       -8.40694         4.85694        -2.42468
   O       -8.85057         5.78536        -1.79228
   C       -9.10712         4.12990        -3.57727
   C      -10.47323         3.66341        -3.07088
   C      -10.32549         2.67757        -1.91249
   O       -9.56942         2.76213        -0.97285
   N      -11.21811         1.66451        -2.11916
   C      -11.40161         0.55345        -1.22292
   C      -11.83513         1.78587        -3.35206
   C      -12.77574         0.95334        -3.91079
   C      -13.26849         1.26965        -5.18724
   C      -12.77125         2.39523        -5.85763
   C      -11.82915         3.22946        -5.27864
   C      -11.37503         2.93641        -4.01030
   C      -14.34558         0.51369        -5.76997
   C      -14.80878        -0.67349        -5.30984
   C      -16.03931        -1.21109        -5.74637
   C      -16.75102        -2.27019        -5.26944
   C      -16.54691        -3.26037        -4.23035
   C      -15.76524        -3.19771        -3.10389
   C      -15.67788        -4.23339        -2.14548
   N      -15.52921        -5.03295        -1.33506
   C      -14.99920        -2.11524        -2.63971
   N      -14.36938        -1.28964        -2.14348
   C      -17.47699        -4.35648        -4.50311
   C      -18.37667        -3.96270        -5.52532
   C      -17.99774        -2.62492        -6.00325
   O      -18.55040        -1.94280        -6.83787
   C      -19.39464        -4.76808        -5.97239
   C      -19.52385        -6.03565        -5.39676
   C      -18.60686        -6.43132        -4.39412
   C      -17.58486        -5.61182        -3.93458
   S      -18.92981        -8.04314        -3.83279
   C      -20.27843        -8.15971        -4.93165
   C      -20.47677        -7.05113        -5.68401
  Br      -21.29037        -9.73639        -4.98939
   H      -15.36330         4.61568        -6.05408
   H      -17.93924         0.70739        -4.26867
   H      -16.85765         4.19042        -8.39931
   H      -14.63236         2.64787        -0.11684
   H      -12.08457         3.42309        -0.01101
   H      -10.58725         5.34495         0.20172
   H      -11.41198         7.63252        -0.25856
   H      -16.76726         4.72677        -0.56870
   H      -16.73170         5.03982        -2.32571
   H      -17.55525         6.18241        -1.24497
   H      -14.13726         8.89652        -0.13702
   H      -14.49291         9.71567        -2.47072
   H      -12.70497         6.12713        -4.88665
   H      -11.00924         6.41976        -4.42549
   H      -11.74474         7.37019        -5.74353
   H       -9.62775         8.35840        -3.94509
   H       -9.92575        11.41482        -0.95413
   H      -12.33295        10.99976        -0.72335
   H       -7.70753         9.29434        -3.16349
   H       -7.88129        11.87677        -1.54126
   H       -5.53846        11.98880        -1.65557
   H       -3.22714        11.04044        -1.78630
   H       -1.98961         8.82013        -2.17907
   H       -1.57977         6.30885        -2.18785
   H       -1.96286         3.76223        -2.16368
   H       -3.83479         2.00295        -2.66942
   H       -5.13730         0.71454        -4.36645
   H       -7.24010         0.24200        -5.52491
   H       -9.14730         1.82003        -5.34521
   H       -5.65828         5.10772        -1.03905
   H       -6.14269         3.44584        -0.63075
   H       -7.21689         4.81451        -0.25306
   H       -9.24047         4.80551        -4.42802
   H      -10.99783         4.54531        -2.67476
   H      -11.10380        -0.38070        -1.70314
   H      -12.44622         0.47374        -0.91701
   H      -10.77298         0.72649        -0.35045
   H      -13.15578         0.11101        -3.35703
   H      -13.14474         2.61846        -6.84604
   H      -11.47245         4.09833        -5.80868
   H      -14.86138         0.98517        -6.59822
   H      -14.26081        -1.20455        -4.55208
   H      -16.52081        -0.69945        -6.57516
   H      -20.06750        -4.43200        -6.74541
   H      -16.91216        -5.96925        -3.17384
   H      -21.26150        -6.95272        -6.41175
*
