# ORCA input file
# SCF done       -218.136942102630          0.000352602265
! CAM-B3LYP def2-SVP def2/J RIJCOSX Grid4 TightSCF
%maxcore 5000
%tddft
    Mode sTDDFT
    Ethresh 5.0
    maxcore 5000
end

%pal
  nprocs 6
  end
* xyz 0 1
   C      -16.36282        -6.23092        13.17317
   C      -15.62557        -7.13484        13.92062
   C      -15.03851        -8.29464        13.39369
   N      -14.54113        -9.25793        13.00817
   C      -15.39146        -6.99507        15.29809
   N      -15.16369        -6.92873        16.42353
   C      -16.58331        -6.31194        11.72424
   C      -17.39180        -5.21946        11.33409
   C      -17.74188        -4.97634        10.03068
   C      -17.26457        -5.85785         9.05315
   C      -16.45640        -6.94502         9.45006
   C      -16.10434        -7.19141        10.77467
   S      -15.98956        -7.91928         8.08505
   C      -16.89762        -6.87516         7.02337
   C      -17.49957        -5.83898         7.64918
  Br      -17.00488        -7.28155         5.19752
   C      -17.71241        -4.41149        12.53031
   O      -18.51301        -3.49780        12.58813
   C      -16.93817        -5.01837        13.63438
   C      -16.87456        -4.42304        14.91185
   C      -16.84999        -3.05762        15.07752
   C      -16.48616        -2.17645        14.04066
   C      -16.82655        -0.84269        13.84124
   C      -16.45082        -0.34618        12.60335
   C      -15.75890        -1.26948        11.82441
   S      -15.49137        -2.73670        12.71644
   C      -15.45434        -1.27955        10.45244
   C      -15.72801        -0.34490         9.45685
   C      -15.47108        -0.81103         8.18135
   C      -14.97815        -2.11555         8.14244
   S      -14.81546        -2.74562         9.76395
   C      -14.69438        -2.91029         7.02614
   C      -14.18484        -4.18015         7.11021
   C      -13.99586        -5.04274         6.02801
   C      -13.43330        -6.32556         6.06314
   C      -13.44332        -6.97426         4.85259
   C      -14.03919        -6.22900         3.82565
   S      -14.52670        -4.65660         4.41362
   C      -14.36721        -6.63195         2.53720
   C      -14.11240        -7.87389         1.91638
   C      -14.69265        -8.00829         0.69204
   C      -15.45899        -6.88194         0.28567
   S      -15.32338        -5.60822         1.50401
   C      -16.18776        -6.72357        -0.85204
   C      -16.97527        -5.54049        -1.12146
   C      -16.80441        -4.86408        -2.33960
   C      -17.36392        -3.62691        -2.57289
   C      -18.13657        -3.00297        -1.59577
   C      -18.38181        -3.68120        -0.42525
   C      -17.84986        -4.95838        -0.19606
   N      -18.37392        -5.48184         0.97430
   C      -18.37173        -6.86176         1.38209
   C      -19.20796        -4.58315         1.58776
   O      -19.80635        -4.77973         2.61628
   C      -19.26070        -3.32122         0.73062
   C      -20.72394        -3.07376         0.32171
   C      -21.13238        -4.08607        -0.75009
   O      -21.04567        -5.29097        -0.68888
   N      -21.59302        -3.38672        -1.82840
   C      -22.03890        -4.01031        -3.04383
   C      -21.51886        -2.01508        -1.61887
   C      -21.88363        -0.99500        -2.46876
   C      -21.71244         0.32908        -2.03683
   C      -21.16273         0.56573        -0.77066
   C      -20.80473        -0.46819         0.07877
   C      -20.98865        -1.76517        -0.34656
   C      -22.09183         1.46936        -2.83926
   C      -22.76155         1.44319        -4.00861
   C      -23.14776         2.59627        -4.75055
   S      -24.06958         2.37122        -6.22851
   C      -24.14047         4.06707        -6.46118
   C      -23.48403         4.76817        -5.45354
   C      -22.92484         3.93693        -4.48986
   C      -23.57062         6.25778        -5.69483
   C      -24.31224         6.96448        -4.55720
   C      -22.18158         6.86919        -5.89756
   C      -24.37348         6.28270        -6.97516
   C      -24.68285         4.99125        -7.38861
   S      -25.59652         4.97161        -8.83920
   C      -25.56762         6.72266        -8.89765
   C      -24.87539         7.25971        -7.83128
   C      -26.23037         7.38235        -9.98653
   C      -26.29700         8.70069       -10.16674
   H      -18.36048        -4.13213         9.76857
   H      -15.48651        -8.03803        11.02423
   H      -18.09917        -5.10117         7.14749
   H      -16.88133        -5.05545        15.78985
   H      -17.08670        -2.62635        16.04041
   H      -17.41499        -0.29101        14.55279
   H      -16.70137         0.63880        12.25115
   H      -16.12581         0.62985         9.67482
   H      -15.64586        -0.24039         7.28621
   H      -14.91194        -2.49224         6.05140
   H      -13.91721        -4.56698         8.08612
   H      -13.04686        -6.74912         6.97334
   H      -13.07041        -7.97021         4.69851
   H      -13.51929        -8.63353         2.39236
   H      -14.62423        -8.88761         0.07677
   H      -16.09193        -7.46411        -1.63472
   H      -16.17142        -5.31638        -3.08876
   H      -17.18783        -3.12862        -3.51381
   H      -18.55270        -2.02109        -1.76402
   H      -17.50108        -7.11285         1.99071
   H      -18.40502        -7.50583         0.50422
   H      -19.26473        -7.01710         1.98754
   H      -18.89153        -2.46022         1.29404
   H      -21.34468        -3.21154         1.21472
   H      -21.95449        -5.08766        -2.90658
   H      -21.41416        -3.70113        -3.88457
   H      -23.07885        -3.75004        -3.25065
   H      -22.28893        -1.20928        -3.44370
   H      -21.02648         1.58648        -0.44543
   H      -20.39417        -0.25846         1.05504
   H      -21.82180         2.42908        -2.42033
   H      -23.06304         0.50075        -4.44410
   H      -22.37796         4.28237        -3.63189
   H      -23.75433         6.86674        -3.62898
   H      -25.29794         6.52570        -4.41948
   H      -24.42992         8.02075        -4.78668
   H      -21.59283         6.77044        -4.98868
   H      -22.26987         7.92399        -6.14620
   H      -21.66099         6.36256        -6.70719
   H      -24.74790         8.31742        -7.69154
   H      -26.70399         6.72012       -10.69995
   H      -25.84200         9.39756        -9.48469
   H      -26.81367         9.12276       -11.01006
*
