# ORCA input file
# SCF done       -198.857190281476          0.000948225944
! CAM-B3LYP def2-SVP def2/J RIJCOSX Grid4 TightSCF
%maxcore 5000
%tddft
    Mode sTDDFT
    Ethresh 5.0
    maxcore 5000
end

%pal
  nprocs 6
  end
* xyz 0 1
   C        5.84402        -6.09914        -9.00656
   C        5.85893        -5.86807        -7.68787
   C        5.90006        -4.59727        -7.01932
   C        5.89707        -4.67374        -5.67234
   C        5.85322        -6.00364        -5.15903
   S        5.82331        -7.16028        -6.47711
   C        5.82314        -6.38833        -3.84446
   C        5.81587        -5.55092        -2.69316
   C        5.75372        -6.21905        -1.51994
   C        5.70520        -7.64263        -1.65349
   S        5.76936        -8.07667        -3.36656
   C        5.55165        -8.54723        -0.66252
   C        5.55696        -9.98698        -0.86725
   C        6.61670       -10.57240        -1.49065
   S        6.56073       -12.28875        -1.53996
   C        5.02993       -12.25712        -0.72412
   C        4.58218       -10.95957        -0.43076
   C        3.31422       -10.78813         0.17574
   C        2.78273        -9.38769         0.32428
   C        2.32407        -8.85297        -1.03629
   C        2.55283       -11.89465         0.53598
   C        1.28357       -11.73258         1.33613
   C        0.05187       -11.40885         0.48596
   C        3.00253       -13.20005         0.21518
   C        2.39348       -14.49428         0.44404
   C        3.22439       -15.51732         0.07008
   S        4.70676       -15.01989        -0.62398
   C        4.25793       -13.35662        -0.39033
   C        1.04759       -14.76070         0.87679
   C        0.65649       -15.87793         1.53696
   C       -0.68699       -16.16111         1.87108
   S       -1.13081       -17.69170         2.58600
   C       -2.85192       -17.37144         2.54191
   C       -3.04560       -16.06104         2.09141
   C       -1.84844       -15.40458         1.69734
   N       -2.21997       -14.16860         1.28194
   N       -3.54214       -13.99498         1.40637
   C       -4.05975       -15.09697         1.88911
   C       -3.80115       -18.34217         2.87983
   C       -5.09933       -18.38591         2.42789
   C       -5.64530       -17.78822         1.27170
   C       -7.06231       -17.67030         1.13681
   C       -7.68013       -17.04409        -0.00255
   N       -9.01794       -16.95428        -0.07331
   C       -9.74175       -17.40696         0.92046
   C       -9.12726       -17.99591         2.06975
   N       -7.82099       -18.12596         2.13949
   C       -9.92491       -18.47865         3.13560
   N      -10.59749       -18.85935         3.98152
   C      -11.15604       -17.33578         0.83793
   N      -12.30059       -17.30544         0.80672
   C       -6.92078       -16.47255        -1.05123
   C       -5.52777       -16.70897        -0.98611
   C       -4.90550       -17.37190         0.13255
   N       -3.60477       -17.56334        -0.07573
   S       -3.19721       -16.97427        -1.51246
   N       -4.64766       -16.43665        -1.94996
   C       -7.55220       -15.79836        -2.12983
   C       -6.98272       -14.89197        -2.97825
   C       -5.74978       -14.15352        -2.85135
   C       -5.20050       -13.73446        -1.66154
   C       -5.91971       -13.88515        -0.45998
   N       -6.55625       -13.96181         0.49259
   C       -3.92924       -13.15966        -1.52498
   N       -2.85485       -12.78079        -1.36454
   C       -5.34538       -13.73893        -4.18565
   C       -6.41308       -14.00612        -5.07985
   C       -7.51842       -14.66765        -4.34359
   O       -8.59469       -15.00082        -4.78128
   C       -6.35188       -13.67879        -6.41153
   C       -5.18168       -13.07087        -6.88224
   C       -4.12108       -12.81621        -5.98139
   C       -4.18545       -13.13596        -4.63055
   S       -2.77210       -12.06430        -6.77973
   C       -3.64163       -12.09846        -8.29112
   C       -4.87677       -12.64525        -8.20484
  Br       -2.83408       -11.40952        -9.83773
   H        5.86406        -5.28309        -9.70714
   H        5.81011        -7.09605        -9.40614
   H        5.92822        -3.68270        -7.58471
   H        5.92362        -3.82176        -5.01632
   H        5.84876        -4.47943        -2.77853
   H        5.73159        -5.75510        -0.54958
   H        5.47672        -8.18218         0.35259
   H        7.47555       -10.07141        -1.89290
   H        3.55392        -8.73323         0.72439
   H        1.94273        -9.35341         1.01370
   H        3.14606        -8.84143        -1.74620
   H        1.94412        -7.83917        -0.93135
   H        1.53620        -9.47890        -1.44814
   H        1.42184       -10.93902         2.07338
   H        1.11511       -12.64904         1.90411
   H        0.13726       -10.42248         0.04093
   H       -0.84341       -11.41155         1.10615
   H       -0.06998       -12.11957        -0.32914
   H        2.99859       -16.56526         0.10356
   H        0.29697       -14.04907         0.57859
   H        1.38798       -16.61159         1.84449
   H       -1.68318       -13.42440         0.86477
   H       -5.11037       -15.16014         2.08364
   H       -3.48439       -19.11178         3.57300
   H       -5.80291       -18.98913         2.98790
   H       -8.57660       -16.08748        -2.33588
   H       -7.17960       -13.88206        -7.07269
   H       -3.35631       -12.92670        -3.97415
   H       -5.54795       -12.74599        -9.03814
*
