# ORCA input file
# SCF done       -175.596674434874          0.000552044522
! CAM-B3LYP def2-SVP def2/J RIJCOSX Grid4 TightSCF
%maxcore 5000
%tddft
    Mode sTDDFT
    Ethresh 5.0
    maxcore 5000
end

%pal
  nprocs 6
  end
* xyz 0 1
   C       -2.49012        -8.93173         5.84339
   C       -1.52341        -8.01814         5.99640
   C       -1.36146        -7.08160         7.07306
   C       -0.28126        -6.28046         6.96056
   C        0.50232        -6.50977         5.79222
   S       -0.20439        -7.79870         4.83448
   C        1.65043        -5.86170         5.41797
   C        2.32060        -4.80973         6.09987
   C        3.44492        -4.37897         5.48246
   C        3.75036        -5.05355         4.26041
   S        2.51656        -6.27345         3.94786
   C        4.86032        -4.85578         3.50439
   C        5.19725        -5.48804         2.26357
   C        4.37146        -5.78665         1.19794
   C        2.94349        -5.47976         0.93394
   N        5.14345        -6.36839         0.23349
   C        6.43500        -6.47944         0.62481
   C        7.45874        -7.05647        -0.28333
   C        6.52964        -5.92907         1.90150
   C        7.64986        -5.84480         2.76778
   C        8.84466        -6.48196         2.63080
   C        9.90746        -6.35930         3.54731
   S       11.27063        -7.44482         3.48831
   C       12.03115        -6.80522         4.94054
   C       11.27166        -5.71539         5.39459
   C       10.10444        -5.48375         4.61901
   N        9.51502        -4.38103         5.14253
   N       10.23097        -3.88622         6.16142
   C       11.27318        -4.65871         6.34036
   C       13.22110        -7.38588         5.37216
   C       13.85213        -7.28466         6.59260
   C       13.34069        -6.92457         7.84891
   C       14.26218        -6.65782         8.91404
   C       13.82756        -6.20359        10.20735
   N       14.73355        -5.89378        11.15035
   C       16.00836        -6.03502        10.87881
   C       16.44061        -6.51037         9.60263
   N       15.56552        -6.80095         8.66267
   C       17.81915        -6.68417         9.33290
   N       18.94149        -6.81273         9.13987
   C       16.96947        -5.71440        11.87147
   N       17.77986        -5.45877        12.63924
   C       12.45988        -6.00140        10.50316
   C       11.54407        -6.45877         9.52640
   C       11.97098        -6.91277         8.22614
   N       10.94759        -7.35922         7.50258
   S        9.59747        -7.23475         8.36723
   N       10.23464        -6.61008         9.70170
   C       12.04777        -5.42522        11.72994
   C       10.93207        -4.64264        11.85840
   C       10.30785        -4.20406        13.08347
   C       10.52181        -4.73291        14.33165
   C        9.85725        -4.30018        15.49571
   N        9.34554        -3.98196        16.47342
   C       11.39612        -5.80678        14.59953
   N       12.06121        -6.69717        14.88755
   C        9.32439        -3.18029        12.74427
   C        9.31130        -3.01592        11.33822
   C       10.31633        -3.91045        10.72716
   O       10.63707        -3.92891         9.55708
   C        8.48382        -2.12316        10.70353
   C        7.61911        -1.35991        11.49564
   C        7.64120        -1.52800        12.89965
   C        8.48407        -2.42745        13.54222
   S        6.49876        -0.48012        13.68686
   C        6.01161         0.15653        12.13859
   C        6.66945        -0.38337        11.08610
  Br        4.67660         1.47263        12.05499
   H       -3.27151        -9.03137         6.57588
   H       -2.51864        -9.58940         4.99410
   H       -2.06651        -7.05494         7.88487
   H       -0.00885        -5.52546         7.67657
   H        1.94771        -4.41140         7.02637
   H        4.08037        -3.59372         5.85346
   H        5.59365        -4.16825         3.90872
   H        2.62537        -4.63101         1.53279
   H        2.30375        -6.32681         1.18473
   H        2.79949        -5.24096        -0.11897
   H        4.79184        -6.66859        -0.66251
   H        7.07263        -7.10414        -1.30004
   H        7.72986        -8.06768         0.02315
   H        8.35986        -6.44620        -0.28191
   H        7.49641        -5.24985         3.65740
   H        9.00478        -7.17216         1.81865
   H        8.70491        -3.87943         4.81951
   H       11.97439        -4.43444         7.11685
   H       13.73331        -7.97901         4.62243
   H       14.89871        -7.56397         6.61597
   H       12.70487        -5.58315        12.57560
   H        8.50365        -2.01873         9.62990
   H        8.47081        -2.51332        14.61601
   H        6.49636        -0.10448        10.06269
*
