# ORCA input file
# SCF done       -152.416880071057          0.000165438538
! CAM-B3LYP def2-SVP def2/J RIJCOSX Grid4 TightSCF
%maxcore 5000
%tddft
    Mode sTDDFT
    Ethresh 5.0
    maxcore 5000
end

%pal
  nprocs 6
  end
* xyz 0 1
   C       -3.41790        -9.13112         6.10661
   C       -2.12344        -8.97035         5.80279
   C       -1.04837        -8.61819         6.68696
   C        0.16043        -8.52660         6.09210
   C        0.14402        -8.80184         4.69416
   S       -1.48116        -9.18167         4.16481
   C        1.21929        -8.79954         3.83870
   C        2.56413        -8.48120         4.14901
   C        3.42037        -8.59534         3.10059
   C        2.81517        -9.03213         1.89325
   S        1.08695        -9.24337         2.14614
   C        3.37437        -9.35494         0.68313
   C        4.72730        -9.28707         0.31302
   C        5.31314        -9.86700        -0.80180
   S        4.65256       -10.80130        -2.10331
   C        6.25902       -10.98857        -2.79433
   C        6.41252       -11.76125        -4.05257
   C        7.22371       -10.38214        -2.06591
   C        6.71840        -9.72923        -0.90470
   C        7.26344        -8.98449         0.13773
   S        5.98182        -8.47639         1.21956
   C        8.62835        -8.68652         0.38803
   S        9.87448        -9.64435        -0.36878
   C       11.12224        -8.71370         0.35928
   C       10.62615        -7.72643         1.14360
   C        9.21321        -7.70600         1.17776
   N        8.51188        -6.69902         1.87412
   C        8.50741        -5.37958         1.27117
   C        7.44494        -5.26247         0.18218
   C        7.79749        -7.00609         2.96329
   C        6.87085        -6.23477         3.65485
   S        6.19937        -4.63764         3.45791
   C        5.12508        -4.89866         4.80929
   C        4.18815        -3.82145         5.21329
   C        5.27588        -6.12690         5.36881
   C        6.26493        -6.90940         4.72599
   C        6.71778        -8.23654         4.89280
   S        7.98238        -8.58405         3.70581
   C        6.14506        -9.11048         5.78930
   C        6.42490       -10.44898         6.02648
   C        5.70909       -11.31565         6.91637
   C        4.54654       -11.03545         7.60471
   C        3.90029       -11.93988         8.46738
   N        3.32749       -12.62693         9.18900
   C        3.82942        -9.83146         7.52492
   N        3.17824        -8.88158         7.49865
   C        6.40844       -12.60085         6.93040
   C        7.50384       -12.52560         6.03417
   C        7.53277       -11.17484         5.43629
   O        8.34764       -10.76295         4.61889
   C        8.35480       -13.57831         5.81432
   C        8.11603       -14.76693         6.51605
   C        7.02426       -14.83149         7.40995
   C        6.15991       -13.76358         7.63054
   S        6.91401       -16.38934         8.17325
   C        8.31794       -16.92487         7.28954
   C        8.84377       -15.98779         6.46631
  Br        8.95777       -18.67158         7.53678
   H       -3.76554        -8.99340         7.11533
   H       -4.14487        -9.40208         5.36306
   H       -1.23203        -8.45511         7.73400
   H        1.07591        -8.29751         6.60781
   H        2.85801        -8.19133         5.14131
   H        4.47476        -8.40379         3.17276
   H        2.71985        -9.76642        -0.07527
   H        5.81252       -11.31971        -4.84788
   H        6.07306       -12.78743        -3.91284
   H        7.45539       -11.77335        -4.35954
   H        8.26178       -10.39376        -2.34281
   H       12.14541        -8.96162         0.16329
   H       11.23207        -7.03347         1.69925
   H        9.49808        -5.21086         0.83976
   H        8.33514        -4.63522         2.05064
   H        6.45609        -5.43836         0.59741
   H        7.62701        -5.99224        -0.60349
   H        7.47035        -4.26725        -0.25168
   H        4.73474        -2.91680         5.47926
   H        3.59782        -4.14219         6.06781
   H        3.51541        -3.57316         4.39255
   H        4.69670        -6.45818         6.21179
   H        5.35460        -8.67127         6.38237
   H        9.17935       -13.49280         5.12401
   H        5.34121       -13.86269         8.32362
   H        9.70857       -16.14833         5.84863
*
