# ORCA input file
# SCF done       -196.443267611944          0.000449443537
! CAM-B3LYP def2-SVP def2/J RIJCOSX Grid4 TightSCF
%maxcore 5000
%tddft
    Mode sTDDFT
    Ethresh 5.0
    maxcore 5000
end

%pal
  nprocs 6
  end
* xyz 0 1
   C      -10.27096        -7.47578        -0.30341
   C       -9.54736        -8.65852        -0.28342
   C       -8.25672        -8.73214         0.35633
   N       -7.57855        -9.87602         0.36641
   C       -8.08552       -10.94493        -0.21199
   C       -9.36700       -10.86963        -0.85185
   N      -10.05761        -9.76147        -0.87635
   C       -9.89734       -12.02937        -1.47747
   N      -10.29242       -12.98321        -1.97213
   C       -7.35172       -12.15201        -0.19329
   N       -6.77362       -13.14204        -0.19221
   C       -7.64974        -7.61154         0.99145
   C       -8.40870        -6.41467         0.96458
   C       -9.70571        -6.36587         0.31806
   N      -10.25412        -5.14910         0.40195
   S       -9.26811        -4.17580         1.19705
   N       -8.08071        -5.23236         1.48617
   C       -6.37665        -7.75685         1.57179
   S       -5.52725        -9.28701         1.53120
   C       -4.10675        -8.65626         2.35091
   C       -4.30092        -7.30127         2.66074
   C       -5.56510        -6.81968         2.22525
   N       -5.62655        -5.52413         2.58608
   N       -4.51370        -5.14116         3.21744
   C       -3.70673        -6.17490         3.27795
   C       -3.01158        -9.49566         2.56208
   C       -1.80253        -9.08429         3.06150
   C       -0.69120        -9.91262         3.24146
   S       -0.69042       -11.64111         2.96194
   C        0.99918       -11.83895         3.35778
   C        1.55024       -10.59363         3.69619
   C        0.59823        -9.54129         3.63911
   N        1.25283        -8.41146         3.98804
   N        2.54089        -8.66528         4.25820
   C        2.74959        -9.94701         4.09503
   C        1.57871       -13.11812         3.30653
   C        2.90875       -13.32776         3.50670
   C        3.62474       -14.55744         3.43787
   C        3.15401       -15.86730         3.72165
   C        1.85729       -16.15783         4.36620
   O        1.06656       -15.39432         4.83486
   S        1.61628       -17.93689         4.45296
   C        3.21880       -18.28359         3.73754
   O        3.57017       -19.38544         3.44480
   C        3.94274       -17.00550         3.53474
   C        5.28285       -16.95259         3.10810
   C        5.75298       -15.65648         2.86441
   C        4.97896       -14.52076         3.03829
   C        5.83849       -13.35833         2.72454
   O        5.60040       -12.18881         2.75510
   O        7.07585       -13.84671         2.37359
   C        7.10344       -15.21762         2.43929
   O        8.07374       -15.86090         2.18740
   C        6.17561       -18.08110         2.96587
   C        6.33923       -19.04017         3.89781
   C        7.29089       -20.08576         3.72825
   C        7.64451       -20.96624         4.70149
   C        8.59069       -22.06753         4.58406
   C        9.18481       -22.51740         3.43599
   C       10.08588       -23.60348         3.38482
   N       10.82361       -24.47597         3.27815
   C        8.97868       -21.99198         2.14148
   N        8.86470       -21.63490         1.05670
   C        8.76824       -22.64152         5.91165
   C        7.91940       -21.96544         6.82295
   C        7.17330       -20.90992         6.11465
   O        6.37107       -20.14452         6.60245
   C        7.86449       -22.28084         8.15958
   C        8.68950       -23.31038         8.62205
   C        9.53695       -23.97966         7.70514
   C        9.58995       -23.66313         6.35405
   S       10.47801       -25.21210         8.48767
   C        9.73253       -24.81794        10.01415
   C        8.82418       -23.81544         9.94374
  Br       10.22554       -25.76412        11.55535
   H      -11.23222        -7.42380        -0.78328
   H       -6.40766        -4.90180         2.41149
   H       -2.75497        -6.07694         3.75912
   H       -3.13132       -10.53272         2.27643
   H       -1.66700        -8.04177         3.31256
   H        0.90668        -7.46908         4.05903
   H        3.72841       -10.35003         4.25392
   H        0.91300       -13.93173         3.06137
   H        3.53643       -12.45734         3.62409
   H        6.82477       -18.05813         2.09911
   H        5.77501       -19.02262         4.81821
   H        7.75705       -20.15348         2.75387
   H        7.20692       -21.74643         8.82716
   H       10.25491       -24.19995         5.69861
   H        8.27222       -23.44561        10.78842
*
