# ORCA input file
# SCF done       -180.994376823796          0.000553205949
! CAM-B3LYP def2-SVP def2/J RIJCOSX Grid4 TightSCF
%maxcore 5000
%tddft
    Mode sTDDFT
    Ethresh 5.0
    maxcore 5000
end

%pal
  nprocs 6
  end
* xyz 0 1
   C        0.29551        -5.76003        10.40287
   C       -0.54014        -5.19442         9.44533
   C       -0.54587        -5.66593         8.08128
   N       -1.41815        -5.15698         7.18999
   C       -2.18980        -4.17265         7.56354
   C       -2.12960        -3.64615         8.90474
   N       -1.34832        -4.17395         9.80484
   C       -2.95940        -2.54992         9.25586
   N       -3.64602        -1.66646         9.49945
   C       -3.11197        -3.63067         6.63343
   N       -3.86581        -3.17375         5.90202
   C        0.32437        -6.68143         7.65993
   C        1.18241        -7.22591         8.61896
   C        1.15153        -6.77430         9.99605
   N        2.04902        -7.43161        10.74504
   S        2.83139        -8.47036         9.82103
   N        2.11359        -8.16733         8.42373
   C        0.35318        -7.09725         6.26681
   C        0.26114        -8.42359         5.84834
   C        0.00785        -9.51343         6.80930
   O       -0.37028        -9.43243         7.94174
   S        0.27269       -11.06690         5.98146
   C        0.50182       -10.27240         4.38524
   O        0.78976       -10.95488         3.42660
   C        0.35007        -8.82947         4.50337
   C        0.36979        -7.85968         3.44140
   C        0.50072        -6.52497         3.89955
   C        0.51271        -6.16283         5.23578
   C        0.76211        -4.70847         5.31361
   O        0.93626        -3.99954         6.25876
   O        0.82216        -4.24565         4.02462
   C        0.67316        -5.27457         3.12182
   O        0.70844        -5.08312         1.94453
   C        0.25654        -8.06408         2.04446
   C       -0.09151        -9.22297         1.41045
   C       -0.18590        -9.36969         0.01312
   C       -0.26514       -10.63014        -0.59239
   O       -0.48044       -10.77819        -1.93900
   C       -0.54384        -9.62177        -2.66051
   C       -0.37186        -8.34424        -2.05326
   C       -0.44271        -7.32428        -2.94579
   S       -0.72332        -7.91096        -4.54040
   C       -0.74439        -9.54632        -4.00026
   O       -0.17849        -8.20524        -0.71433
   C       -0.04449       -11.82375         0.11697
   C       -0.08497       -13.07400        -0.45334
   C        0.22146       -14.25047         0.22443
   S        0.14039       -15.78892        -0.61904
   C        0.67779       -16.73473         0.75371
   C        0.89438       -15.86737         1.84263
   C        0.64381       -14.50029         1.54424
   N        0.91155       -13.80924         2.67433
   N        1.30292       -14.62712         3.65687
   C        1.30249       -15.85459         3.19528
   C        0.84738       -18.10742         0.62076
   C        1.32381       -18.94559         1.60909
   C        1.52340       -20.30493         1.40578
   C        2.04146       -21.18406         2.34150
   C        2.45144       -20.94522         3.67150
   C        2.94198       -22.04516         4.31169
   C        2.94923       -23.21476         3.51985
   S        2.29549       -22.86741         1.93367
   C        3.40003       -24.47212         3.86873
   C        3.95313       -24.87101         5.11635
   C        4.32542       -26.17031         5.16924
   C        4.09239       -26.90099         3.95765
   S        3.36436       -25.81977         2.75815
   C        4.36260       -28.19034         3.70901
   H        0.28377        -5.40033        11.41787
   H        0.44292        -7.19442         1.43138
   H       -0.32654       -10.09483         1.98740
   H       -0.34700        -6.27632        -2.75373
   H       -0.89991       -10.34921        -4.68993
   H        0.22343       -11.74084         1.15335
   H       -0.35346       -13.16509        -1.49638
   H        0.86742       -12.81556         2.87249
   H        1.58518       -16.66402         3.83633
   H        0.60545       -18.53522        -0.34335
   H        1.56896       -18.51955         2.56889
   H        1.27314       -20.71223         0.43500
   H        2.37757       -19.97441         4.12672
   H        3.29941       -22.04120         5.32561
   H        4.05615       -24.17746         5.93164
   H        4.76319       -26.65146         6.02550
   H        4.80773       -28.81349         4.46440
   H        4.14709       -28.63991         2.75712
*
