# ORCA input file
# SCF done       -120.583088276724          0.000382541585
! CAM-B3LYP def2-SVP def2/J RIJCOSX Grid4 TightSCF
%maxcore 5000
%tddft
    Mode sTDDFT
    Ethresh 5.0
    maxcore 5000
end

%pal
  nprocs 6
  end
* xyz 0 1
   C        2.50452         1.47073         5.84924
   O        3.73953         1.33759         5.16318
   C        3.96189         0.14581         4.58749
   O        3.18196        -0.77346         4.63613
   C        5.26049         0.10780         3.89429
   C        5.69461        -1.00372         3.21506
   S        7.21846        -0.76558         2.49612
   C        7.30974         0.86989         3.10760
   C        8.44809         1.67198         2.79807
   C        8.64584         2.93235         3.23583
   C        9.78300         3.69959         2.85354
   N       10.76175         3.33426         2.05545
   C       11.57188         4.40367         1.96692
   C       11.05967         5.43481         2.73752
   C       11.51172         6.76450         2.94989
   C       10.89902         7.63594         3.78414
   C       11.27184         8.99371         3.98419
   C       12.20277         9.75821         3.33125
   C       12.18639        11.09290         3.84720
   C       11.19261        11.16157         4.87942
   C       11.05117        12.39203         5.42406
   S       12.12557        13.52534         4.68837
   C       12.80141        12.30361         3.60730
   C       13.79546        12.70379         2.67683
   C       14.52441        11.87696         1.89422
   C       15.47012        12.38476         0.95750
   N       16.35081        11.69319         0.27133
   C       17.02869        12.60042        -0.46007
   C       16.52536        13.85903        -0.19855
   C       16.85794        15.15957        -0.71394
   C       17.70771        15.34975        -1.77112
   S       17.86214        16.99772        -2.20774
   C       16.76496        17.46240        -0.98091
   C       16.31160        16.40273        -0.25095
   C       15.41279        16.59110         0.91059
   O       15.44971        15.97887         1.94561
   O       14.55106        17.59442         0.67719
   C       13.65659        17.89903         1.73790
   O       15.52900        13.70527         0.69717
   C       10.57041         9.82870         5.01391
   O        9.69109         9.47603         5.76341
   O        9.91696         4.96646         3.30221
   C        6.18461         1.17380         3.83249
   H        2.49583         2.47366         6.26788
   H        2.42706         0.72247         6.64063
   H        1.67021         1.33593         5.15775
   H        5.17560        -1.93625         3.11514
   H        9.19898         1.23249         2.15689
   H        7.94406         3.43163         3.88622
   H       12.46169         4.38798         1.37169
   H       12.38964         7.04696         2.38790
   H       10.04536         7.30349         4.36097
   H       12.83493         9.41778         2.53196
   H       10.38845        12.71440         6.20298
   H       13.98579        13.76765         2.60971
   H       14.45570        10.80395         1.94934
   H       17.82550        12.30885        -1.11212
   H       18.24345        14.60139        -2.31859
   H       16.52230        18.49630        -0.83897
   H       13.08651        18.76562         1.41463
   H       14.21175        18.12031         2.65148
   H       12.99159        17.05407         1.92786
   H        6.00915         2.12176         4.30432
*
