# ORCA input file
# SCF done       -191.233327886610          0.000944720409
! CAM-B3LYP def2-SVP def2/J RIJCOSX Grid4 TightSCF
%maxcore 5000
%tddft
    Mode sTDDFT
    Ethresh 5.0
    maxcore 5000
end

%pal
  nprocs 6
  end
* xyz 0 1
   C        7.33586         5.02591        -5.61858
   C        6.52891         4.73178        -4.60309
   C        6.00829         3.41973        -4.32197
   S        6.12083         2.15725        -5.51155
   C        5.19333         1.08054        -4.51443
   C        4.94150        -0.24445        -5.07054
   C        3.76393        -0.56087        -5.75910
   N        2.70470         0.23586        -5.94441
   S        1.60323        -0.55789        -6.79441
   N        2.39209        -1.94455        -6.97594
   C        3.57906        -1.85224        -6.37419
   C        4.56377        -2.87195        -6.33130
   C        4.25527        -4.10555        -6.96113
   C        5.05668        -5.20645        -7.05096
   C        4.71474        -6.43766        -7.63714
   S        6.01949        -7.53610        -7.98378
   C        4.97940        -8.70590        -8.72083
   C        5.48735        -9.85131        -9.38283
   C        5.01848       -10.37545       -10.56289
   C        5.92090       -11.40140       -10.99370
   C        5.74387       -12.16998       -12.15136
   N        5.58297       -12.78977       -13.10456
   C        6.96304       -11.50324       -10.09553
   C        6.72380       -10.58784        -9.03309
   C        7.37230       -10.55749        -7.81673
   C        6.80725       -10.16289        -6.56760
   C        7.70071       -10.48898        -5.57383
   C        7.49969       -10.32433        -4.19823
   N        7.33617       -10.19730        -3.06838
   C        8.88994       -11.04774        -6.16607
   C        8.71774       -11.10388        -7.52068
   C        9.66719       -11.48624        -8.51116
   C       10.76172       -12.24719        -8.27763
   C       11.67547       -12.65345        -9.28678
   S       11.47586       -12.16448       -10.95287
   C       12.84730       -13.07540       -11.42180
   C       13.43667       -13.71848       -10.37216
   C       12.77561       -13.48006        -9.14642
   C       13.19756       -14.11569        -7.86102
   C       14.57821       -14.77353        -7.95913
   O       15.61904       -13.84035        -7.78436
   C       14.75966       -15.54056        -9.28769
   C       13.75901       -16.68161        -9.43160
   O       12.81717       -16.86830        -8.71934
   O       14.01651       -17.51645       -10.45286
   C       14.66118       -14.57391       -10.48012
   C        3.64000        -8.27789        -8.65489
   C        2.51252        -9.01425        -9.05182
   C        1.25872        -8.49426        -8.86303
   S       -0.20226        -9.37899        -9.34728
   C        1.08601        -7.23095        -8.23878
   O       -0.13719        -6.70862        -8.01586
   C        2.18413        -6.51539        -7.81488
   C        3.47965        -7.00641        -8.02605
   C        5.75588        -2.53034        -5.64537
   N        6.75994        -3.42912        -5.56047
   C        7.84933        -3.10908        -4.94270
   F        8.81851        -4.02475        -4.89265
   C        8.01343        -1.83563        -4.33456
   F        9.13620        -1.53399        -3.68503
   N        7.08388        -0.94454        -4.38436
   C        5.93049        -1.23564        -5.03905
   C        4.84923         1.65586        -3.32336
   C        5.33939         2.98516        -3.20174
   C        5.18330         3.82739        -1.96434
   C        6.55660         4.14335        -1.35781
   C        4.31141         3.14473        -0.89953
   C        3.30569         2.17516        -1.50132
   C        4.04530         1.03790        -2.21396
   C        3.06324        -0.03437        -2.67334
   H        7.67901         6.02975        -5.79616
   H        7.67994         4.26532        -6.29980
   H        6.20023         5.51456        -3.93180
   H        3.28085        -4.10982        -7.42568
   H        6.06612        -5.13036        -6.67212
   H        4.17955       -10.03143       -11.13745
   H        7.73960       -12.24168       -10.13087
   H        5.80765        -9.80555        -6.41251
   H        9.76175       -11.32948        -5.60716
   H        9.49030       -11.13905        -9.52036
   H       10.95501       -12.62345        -7.28345
   H       13.14524       -13.08906       -12.45162
   H       12.46573       -14.88046        -7.59043
   H       13.22799       -13.37749        -7.05523
   H       14.69313       -15.48283        -7.13243
   H       15.44071       -13.07375        -8.34150
   H       15.76524       -15.98120        -9.27593
   H       14.82118       -17.28821       -10.93720
   H       14.64597       -15.11508       -11.43071
   H       15.55395       -13.93852       -10.49082
   H        2.64241        -9.99774        -9.47572
   H        0.43306       -10.44553        -9.81839
   H       -0.83052        -7.29920        -8.33923
   H        2.00192        -5.59295        -7.29322
   H        4.70745         4.77117        -2.25983
   H        7.06860         3.21869        -1.09951
   H        6.43547         4.73716        -0.45394
   H        7.18465         4.69241        -2.05347
   H        3.79500         3.90802        -0.31417
   H        4.95518         2.58709        -0.21477
   H        2.66139         2.69078        -2.21698
   H        2.67501         1.76462        -0.71015
   H        4.74333         0.58029        -1.49946
   H        2.42166         0.35277        -3.46125
   H        2.43974        -0.34256        -1.83595
   H        3.58702        -0.91182        -3.04534
*
