# ORCA input file
# SCF done       -109.614941101137          0.000540870492
! CAM-B3LYP def2-SVP def2/J RIJCOSX Grid4 TightSCF
%maxcore 5000
%tddft
    Mode sTDDFT
    Ethresh 5.0
    maxcore 5000
end

%pal
  nprocs 6
  end
* xyz 0 1
   O        4.19045        -2.83366        -2.28383
   C        4.68198        -2.90428        -1.18630
   C        4.03858        -3.36413         0.09903
   C        2.69822        -3.82681         0.23251
   S        2.10537        -4.21726         1.85649
   C        0.55154        -4.67730         1.26363
   C        0.48669        -4.54515        -0.07914
   C        1.69660        -4.06248        -0.68204
   C        1.47952        -3.98667        -2.09780
   C        0.20832        -4.39351        -2.39476
   C       -0.35375        -4.45078        -3.72067
   C       -1.68328        -4.83516        -3.97468
   N       -2.17363        -4.89536        -5.19075
   C       -1.36419        -4.56846        -6.21024
   C       -1.91784        -4.65283        -7.52982
   S       -0.98157        -4.27352        -8.96947
   C       -2.31531        -4.62285       -10.01380
   C       -3.40397        -5.00468        -9.30652
   C       -3.18867        -5.02368        -7.89268
   C       -4.39791        -5.44159        -7.25490
   C       -5.35766        -5.69319        -8.19858
   C       -6.68311        -6.13470        -7.91816
   S       -7.19220        -6.22819        -6.22225
   C       -8.76079        -6.80727        -6.64913
   C       -8.88928        -6.92400        -7.98951
   C       -7.71826        -6.54385        -8.72193
   C       -8.00204        -6.73443       -10.12895
   C       -9.25903        -7.19857       -10.27448
   C       -9.92505        -7.35778        -8.96015
   O      -11.04526        -7.75164        -8.73322
   C       -4.79741        -5.42379        -9.56954
   O       -5.34941        -5.50987       -10.63879
   C       -0.04130        -4.16999        -5.95599
   N        0.45075        -4.11668        -4.74261
   C       -0.51431        -4.77464        -1.14359
   O       -1.64677        -5.17866        -1.01561
   C        4.93956        -3.26269         1.12121
   C        6.19235        -2.76536         0.62586
   C        7.43037        -2.45692         1.08947
   S        8.44688        -1.89038        -0.19541
   C        7.18411        -2.07306        -1.36467
   C        6.05566        -2.54330        -0.78486
   H       -0.20051        -5.01398         1.94993
   H        2.20367        -3.65512        -2.81855
   H       -2.35581        -5.10046        -3.17204
   H       -2.19420        -4.52107       -11.07446
   H       -4.50805        -5.54140        -6.19040
   H       -9.47505        -7.02082        -5.87830
   H       -7.29874        -6.52278       -10.91301
   H       -9.75252        -7.43512       -11.19939
   H        0.62581        -3.89326        -6.76284
   H        4.74828        -3.52021         2.14808
   H        7.82368        -2.51812         2.08402
   H        7.36878        -1.82174        -2.39016
*
