# ORCA input file
# SCF done       -112.846218168162          0.000779202564
! CAM-B3LYP def2-SVP def2/J RIJCOSX Grid4 TightSCF
%maxcore 5000
%tddft
    Mode sTDDFT
    Ethresh 5.0
    maxcore 5000
end

%pal
  nprocs 6
  end
* xyz 0 1
   O        2.32956        -9.10663        -2.34580
   N        3.21522        -8.58605        -2.98718
   O        3.63471        -8.96967        -4.05485
   C        3.81175        -7.41734        -2.43424
   C        3.47441        -6.80348        -1.24699
   O        4.23967        -5.74647        -1.05200
   C        5.08769        -5.63877        -2.09967
   C        6.06121        -4.58693        -2.15831
   O        7.01896        -4.68252        -3.09055
   C        7.86592        -3.63342        -2.94198
   C        9.00317        -3.49503        -3.81842
   C        9.23747        -4.36779        -4.89379
   N       10.30699        -4.25677        -5.64590
   C       11.17083        -3.28170        -5.35449
   C       12.38087        -3.19327        -6.13738
   O       13.07759        -2.05465        -6.11969
   C       14.14055        -2.18778        -6.93417
   C       15.08248        -1.11937        -7.08920
   O       16.02656        -1.25654        -8.03182
   C       16.79105        -0.14989        -8.02973
   C       16.36373         0.73272        -7.09198
   C       15.24904         0.11309        -6.46361
   N       14.52858         0.69668        -5.38836
   O       13.73098         0.01143        -4.78323
   O       14.77916         1.85551        -5.13654
   C       14.13469        -3.43640        -7.51994
   C       13.00401        -4.09376        -6.99600
   N       12.66251        -5.45567        -7.27296
   O       12.16907        -6.10534        -6.38357
   O       12.94210        -5.86237        -8.37793
   C       10.90543        -2.36317        -4.32384
   N        9.83752        -2.47942        -3.56806
   C        7.45889        -2.84260        -1.89682
   C        6.28697        -3.44693        -1.39029
   N        5.50254        -2.90762        -0.32978
   O        4.36079        -3.29392        -0.21293
   O        6.03693        -2.07577         0.36817
   C        4.86793        -6.66210        -2.99404
   H        2.73016        -7.04882        -0.51421
   H        8.54636        -5.15802        -5.14724
   H       17.59750        -0.11280        -8.73434
   H       16.76126         1.69499        -6.84622
   H       14.84492        -3.83783        -8.21267
   H       11.57485        -1.53968        -4.11648
   H        7.92390        -1.94655        -1.54256
   H        5.37626        -6.85341        -3.91569
*
