# ORCA input file
# SCF done       -179.683426128063          0.000354657910
! CAM-B3LYP def2-SVP def2/J RIJCOSX Grid4 TightSCF
%maxcore 5000
%tddft
    Mode sTDDFT
    Ethresh 5.0
    maxcore 5000
end

%pal
  nprocs 6
  end
* xyz 0 1
   C        7.56365         8.02991         4.39421
   C        6.91493         6.89809         4.15980
   C        6.85605         5.72776         5.03985
   C        6.97436         4.49109         4.43396
   C        6.96498         3.30948         5.18317
   C        7.08010         1.97175         4.73260
   C        7.40781         1.41842         3.48782
   C        8.02766         2.05583         2.44519
   C        8.34255         1.39264         1.24653
   C        8.01545         0.09755         0.83353
   C        7.30045        -1.09926         1.19785
   O        6.67618        -1.41518         2.19488
   N        7.46397        -1.95911         0.09115
   C        6.88796        -3.28040         0.08075
   C        5.44356        -3.25777        -0.41332
   C        8.24671        -1.38616        -0.87744
   C        8.64446        -1.95388        -2.12495
   S        7.58978        -2.89473        -3.14936
   C        8.73331        -2.88402        -4.41997
   C        9.87053        -2.19868        -4.09492
   C        9.83571        -1.68303        -2.77025
   C       11.03564        -1.09533        -2.15757
   O       11.24054        -1.06995        -0.96036
   C       12.03535        -0.62684        -3.14343
   C       13.03083         0.23342        -2.70252
   C       14.00973         0.71068        -3.56372
   C       15.02887         1.69413        -3.07048
   C       14.43073         3.10277        -3.05021
   C       13.99185         0.29020        -4.88987
   C       13.01895        -0.58127        -5.33980
   C       12.02257        -1.04214        -4.48278
   C       10.99553        -1.96238        -5.01321
   O       11.05148        -2.45241        -6.12526
   C        8.58647        -0.11514        -0.44607
   C        9.27055         1.09114        -0.85097
   O        9.87793         1.38657        -1.86202
   N        9.07154         1.97036         0.22234
   C        9.70026         3.26719         0.23881
   C       10.98416         3.26324         1.06535
   S        6.80970         0.86596         6.04955
   C        6.64990         2.13589         7.21858
   C        6.48823         1.89346         8.58926
   C        6.45094         0.64381         9.13883
   C        6.32914         0.31158        10.50919
   C        6.15864         1.23583        11.57594
   N        6.03335         2.55136        11.31725
   C        5.85475         3.38285        12.30963
   C        5.78327         2.94005        13.63965
   N        5.90950         1.67281        13.92222
   C        6.10314         0.78613        12.93393
   C        6.24490        -0.57957        13.29609
   C        6.26269        -0.95507        14.66993
   S        5.77949         0.22457        15.87297
   C        6.02054        -0.90574        17.14429
   C        6.49146        -2.09620        16.70196
   C        6.63154        -2.14306        15.29560
   S        7.29454        -3.57719        14.54806
   C        6.32753        -1.50255        12.22562
   N        6.32603        -2.81796        12.49697
   C        6.39021        -3.67784        11.51722
   C        6.46842        -3.24540        10.18327
   N        6.45798        -1.97680         9.87533
   C        6.37302        -1.06692        10.86462
   C        6.73413         3.39769         6.58436
   C        6.58465         4.65528         7.18247
   C        6.65752         5.81243         6.44332
   C        6.45615         7.12463         7.13794
   H        7.58017         8.82496         3.66791
   H        8.12507         8.20010         5.29583
   H        6.41697         6.76452         3.20608
   H        7.06001         4.44696         3.35998
   H        7.20148         0.36095         3.37628
   H        8.34676         3.08060         2.55003
   H        6.90940        -3.64258         1.11296
   H        7.50252        -3.93388        -0.54281
   H        4.84217        -2.63720         0.24608
   H        5.03803        -4.26543        -0.41248
   H        5.38623        -2.85796        -1.42321
   H        8.51529        -3.37233        -5.34937
   H       13.01923         0.52959        -1.66397
   H       15.90787         1.68064        -3.71747
   H       15.34056         1.42290        -2.05980
   H       14.14573         3.40665        -4.05483
   H       15.15364         3.81653        -2.66209
   H       13.54299         3.12581        -2.42277
   H       14.74995         0.64623        -5.57282
   H       13.00591        -0.91929        -6.36562
   H        8.99631         4.01617         0.61361
   H        9.93601         3.49833        -0.80425
   H       10.77679         3.02294         2.10576
   H       11.46057         4.23892         1.01737
   H       11.66961         2.51721         0.67096
   H        6.40417         2.75060         9.23920
   H        6.54508        -0.21282         8.48251
   H        5.75866         4.42963        12.05339
   H        5.62086         3.61366        14.46899
   H        5.82655        -0.61829        18.15881
   H        6.72933        -2.93067        17.33850
   H        7.83273        -4.00410        15.71824
   H        6.38588        -4.72342        11.79077
   H        6.53471        -3.94424         9.36083
   H        6.39043         4.71345         8.24280
   H        5.84793         6.98627         8.02925
   H        5.96983         7.84492         6.48479
   H        7.41330         7.54106         7.45197
*
