# ORCA input file
# SCF done       -144.809679929428          0.000670888681
! CAM-B3LYP def2-SVP def2/J RIJCOSX Grid4 TightSCF
%maxcore 5000
%tddft
    Mode sTDDFT
    Ethresh 5.0
    maxcore 5000
end

%pal
  nprocs 6
  end
* xyz 0 1
   O       18.32584         2.69734         1.61789
   C       17.26117         2.42453         2.10188
   O       16.90152         1.15155         2.32857
   C       16.28869         3.46542         2.47640
   C       16.48834         4.81183         2.32014
   C       15.38417         5.54926         2.76783
   S       14.99445         7.23273         2.84627
   C       13.46241         6.86149         3.53205
   C       13.21865         5.51902         3.70759
   C       12.01898         4.96311         4.26238
   S       11.99578         3.29331         4.82186
   C       10.35144         3.41242         5.33664
   C        9.85268         4.64478         5.09196
   C       10.78985         5.53864         4.47480
   C       10.11973         6.78060         4.23627
   C        8.82730         6.71683         4.69027
   C        7.87300         7.76681         4.61868
   C        6.61086         7.69179         5.10786
   C        5.66457         8.73881         5.04043
   S        6.00171        10.28690         4.25590
   C        4.43261        10.90454         4.63240
   C        3.69299         9.99463         5.30699
   C        4.38223         8.76092         5.54742
   C        3.52886         7.89367         6.29537
   C        2.33562         8.52294         6.52996
   C        1.20652         8.15660         7.31065
   C        1.14496         7.17000         8.23274
   C        0.07895         7.02496         9.17255
   S       -0.19617         5.44086         9.87368
   C       -1.52424         6.04388        10.79600
   C       -2.41726         5.49364        11.72085
   C       -3.29727         6.43238        12.19706
   C       -4.35625         6.16593        13.17984
   O       -4.53933         5.06905        13.63529
   O       -5.11758         7.21040        13.54984
   S       -3.02489         8.02130        11.49887
   C       -1.71851         7.40551        10.55634
   C       -0.80620         7.98346         9.65274
   C       -0.77640         9.41540         9.33652
   C       -1.95197        10.10478         9.04558
   C       -1.92052        11.44645         8.69748
   C       -0.71691        12.11887         8.60932
   C        0.45329        11.43340         8.91554
   N        1.72563        12.09495         8.77524
   O        1.72542        13.29535         8.62127
   O        2.72295        11.40325         8.81349
   C        0.43112        10.10771         9.31171
   C        2.35603         9.89445         5.91834
   O        1.46975        10.71614         5.96731
   C        8.57109         5.35766         5.27365
   O        7.55492         4.93595         5.77330
   C       14.34458         4.76976         3.26657
   S       14.72494         3.09524         3.18197
   H       16.02289         1.06415         2.72246
   H       17.38863         5.22245         1.90274
   H       12.81432         7.67041         3.80100
   H        9.87413         2.56079         5.77980
   H       10.55452         7.63880         3.75607
   H        8.19966         8.68430         4.14128
   H        6.27906         6.78358         5.59113
   H        4.17245        11.89962         4.32878
   H        3.79597         6.90161         6.61300
   H        0.36553         8.82698         7.19263
   H        1.94116         6.44129         8.30428
   H       -2.43569         4.46867        12.04108
   H       -4.86790         8.03785        13.11685
   H       -2.89547         9.58005         9.06717
   H       -2.84147        11.96006         8.46932
   H       -0.66082        13.14932         8.29618
   H        1.35844         9.61847         9.56693
*
