# ORCA input file
# SCF done       -136.009271024451          0.000716268884
! CAM-B3LYP def2-SVP def2/J RIJCOSX Grid4 TightSCF
%maxcore 5000
%tddft
    Mode sTDDFT
    Ethresh 5.0
    maxcore 5000
end

%pal
  nprocs 6
  end
* xyz 0 1
   C        9.73685        -7.91317        -4.37871
   N        9.52413        -6.57486        -4.86525
   C       10.33089        -6.00672        -5.80025
   S       11.64823        -6.69615        -6.47117
   S        9.77495        -4.38354        -6.16693
   C        8.41597        -4.53774        -5.05131
   C        7.57203        -3.49389        -4.87398
   C        6.35617        -3.46359        -4.10828
   C        5.85796        -2.32316        -3.50913
   S        4.40109        -2.64206        -2.68906
   C        4.51529        -4.31421        -3.23729
   C        3.47047        -5.24650        -2.96317
   C        3.53868        -6.53618        -3.34287
   C        2.46334        -7.48739        -3.23612
   C        1.45768        -7.47483        -2.28349
   C        1.29722        -6.57942        -1.22232
   N        1.14469        -5.85494        -0.34535
   S        0.34027        -8.78526        -2.46112
   C        1.21198        -9.35043        -3.83458
   C        0.68801       -10.53310        -4.57388
   F       -0.60131       -10.76360        -4.29116
   F        0.76369       -10.37987        -5.90706
   F        1.34297       -11.67280        -4.28682
   C        2.31585        -8.58756        -4.14077
   C        3.20814        -8.84875        -5.25562
   S        3.88364       -10.43897        -5.48313
   C        4.76857        -9.92990        -6.88337
   C        5.64245       -10.83904        -7.57461
   C        5.83487       -12.16091        -7.25784
   S        6.97674       -12.87808        -8.31062
   C        7.12085       -11.34522        -9.11056
   N        6.38873       -10.41007        -8.63512
   C        4.51837        -8.61078        -7.16173
   C        3.64508        -7.99633        -6.23434
   C        3.37980        -6.54205        -6.44746
   C        4.75163        -5.85959        -6.55553
   N        4.59943        -4.39681        -6.78189
   O        3.61481        -3.87386        -6.32623
   O        5.49342        -3.82599        -7.35646
   C        5.68493        -6.49340        -7.59076
   N        6.92323        -6.97320        -6.93237
   O        7.97051        -6.76802        -7.49275
   O        6.79441        -7.57633        -5.89219
   C        5.08750        -7.75611        -8.24311
   N        5.56854        -4.55337        -3.94865
   C        8.48511        -5.82532        -4.39743
   S        7.54720        -6.35623        -3.15317
   H       10.50988        -8.38397        -4.98160
   H        8.79921        -8.46564        -4.45556
   H       10.04364        -7.88396        -3.33197
   H        7.82960        -2.56454        -5.36308
   H        6.29614        -1.34575        -3.50660
   H        2.59071        -4.84583        -2.48184
   H        4.44282        -6.90410        -3.80763
   H        5.36856       -12.72382        -6.47495
   H        7.78372       -11.21465        -9.94227
   H        2.80381        -6.09877        -5.63863
   H        2.82419        -6.40288        -7.37963
   H        5.22911        -5.90979        -5.55914
   H        5.99689        -5.76508        -8.34745
   H        5.84871        -8.29897        -8.80529
   H        4.29803        -7.45414        -8.93521
*
