# ORCA input file
# SCF done       -161.045346867645          0.000726330760
! CAM-B3LYP def2-SVP def2/J RIJCOSX Grid4 TightSCF
%maxcore 5000
%tddft
    Mode sTDDFT
    Ethresh 5.0
    maxcore 5000
end

%pal
  nprocs 6
  end
* xyz 0 1
   O        2.15704         0.17842         0.56415
   C        3.24048        -0.28991         0.43445
   C        4.59957         0.28973         0.03085
   C        5.17302         1.34285         0.90737
   C        5.81596         2.47119         0.39503
   N        6.01171         2.76895        -0.89591
   S        6.79059         4.15947        -0.98934
   N        6.93117         4.48100         0.56758
   C        6.36126         3.49143         1.26982
   C        6.25589         3.38558         2.65170
   C        5.61466         2.26657         3.16348
   N        5.48404         2.13538         4.51074
   C        4.88480         1.09494         4.97180
   F        4.75771         0.97381         6.28843
   C        4.36545         0.07703         4.10991
   F        3.76833        -0.99682         4.61789
   N        4.46625         0.15897         2.82862
   C        5.08176         1.24651         2.29732
   C        5.15980        -1.13232         0.17080
   O        6.23796        -1.60446         0.01800
   C        3.80176        -1.71050         0.58424
   C        3.20922        -2.76827        -0.27200
   C        2.80803        -4.00342         0.24214
   N        2.90159        -4.41508         1.51312
   S        2.31799        -5.89724         1.62222
   N        1.91092        -6.12164         0.09474
   C        2.21697        -5.02028        -0.60311
   C        2.01654        -4.80882        -1.96909
   C        1.40971        -5.83931        -2.84843
   C        0.15601        -5.44555        -3.63837
   O       -0.92640        -5.07449        -3.32334
   C        0.82916        -5.71295        -4.99082
   C        0.22346        -6.75443        -5.85943
   C       -0.28012        -6.46599        -7.12918
   N       -0.29783        -5.27203        -7.73546
   S       -0.97177        -5.43676        -9.17349
   N       -1.28188        -7.00184        -9.13498
   C       -0.86438        -7.49962        -7.96223
   C       -0.93642        -8.81801        -7.52805
   C       -0.43377        -9.10790        -6.26759
   N       -0.47863       -10.38934        -5.81450
   C       -0.00813       -10.64446        -4.64489
   F       -0.05163       -11.89851        -4.20930
   C        0.54696        -9.62046        -3.81258
   F        1.00590        -9.91230        -2.59924
   N        0.61055        -8.39402        -4.20011
   C        0.13638        -8.08115        -5.43356
   C        2.08422        -6.09975        -4.20183
   O        3.17282        -6.45336        -4.51781
   C        2.41773        -3.57140        -2.47780
   N        2.23413        -3.32267        -3.79913
   C        2.61024        -2.18473        -4.27175
   F        2.41789        -1.95626        -5.56690
   C        3.21184        -1.18957        -3.44201
   F        3.59883        -0.02682        -3.95671
   N        3.39856        -1.38164        -2.18185
   C        3.01397        -2.56491        -1.64000
   H        4.62797         0.63739        -1.00480
   H        6.64866         4.14067         3.31026
   H        3.79939        -2.05582         1.62104
   H        1.26070        -6.75324        -2.26829
   H        0.95367        -4.79618        -5.57225
   H       -1.35991        -9.59488        -8.14076
*
