# ORCA input file
# SCF done       -145.791038879296          0.000645668376
! CAM-B3LYP def2-SVP def2/J RIJCOSX Grid4 TightSCF
%maxcore 5000
%tddft
    Mode sTDDFT
    Ethresh 5.0
    maxcore 5000
end

%pal
  nprocs 6
  end
* xyz 0 1
   C        1.48130         0.68463        -1.46759
   C        2.80001         0.94361        -2.20159
   C        3.40140         2.24533        -1.79913
   S        4.73518         2.27243        -0.72284
   C        4.77260         4.02172        -0.72895
   C        5.79794         4.67641         0.01891
   S        6.17162         6.36003        -0.12617
   C        7.47334         6.27078         1.02583
   C        8.21414         7.48315         1.29686
   C        9.56882         7.53399         1.60147
   O       10.26884         6.36026         1.66696
   C       10.92371         6.09106         2.90035
   C       10.24466         8.78598         1.76800
   O       11.59736         8.83214         1.99511
   C       12.42708         8.28208         0.97875
   C        9.55892         9.98514         1.77308
   C       10.20346        11.27821         2.03846
   C       11.18281        11.83963         1.25766
   F       11.60561        11.18610         0.15551
   C       11.76540        13.09686         1.50608
   C       11.36684        13.85867         2.56687
   C       10.35883        13.34673         3.40175
   N        9.82361        13.92091         4.48023
   S        8.71678        12.93280         5.09171
   N        8.85234        11.72836         4.03957
   C        9.77876        12.05516         3.13919
   C        8.17563         9.95676         1.51482
   N        7.34846        10.99715         1.42457
   S        5.88860        10.45973         1.02555
   N        6.23202         8.88871         0.93412
   C        7.52084         8.71611         1.21974
   C        7.58084         4.99652         1.53202
   O        8.42397         4.64554         2.52253
   C        6.64117         4.09007         0.95600
   C        6.63446         2.76166         1.39845
   N        6.74399         1.71496         1.86294
   C        3.76155         4.54008        -1.51312
   C        3.55483         6.00144        -1.75584
   C        2.86496         6.69151        -0.57614
   C        2.96293         3.51887        -2.11103
   C        1.82456         3.69631        -2.98311
   C        0.89844         4.66654        -2.90404
   C       -0.23660         4.80641        -3.78216
   C       -0.52827         4.03414        -4.86477
   C       -1.69157         4.27537        -5.65628
   C       -2.00894         3.50233        -6.75613
   C       -3.15303         3.75008        -7.53139
   N       -4.09032         3.95953        -8.16206
   C       -1.19982         2.42493        -7.15181
   N       -0.52476         1.54581        -7.45531
   C       -2.50821         5.38086        -5.22578
   C       -2.14257         6.08969        -4.14664
   O       -1.04415         5.84249        -3.41572
   H        1.06403        -0.26935        -1.77819
   H        0.76137         1.46990        -1.68710
   H        1.64784         0.65784        -0.39343
   H        2.62005         0.93724        -3.28018
   H        3.50367         0.14204        -1.97149
   H       10.18486         5.95200         3.69343
   H       11.61722         6.88347         3.18669
   H       11.46672         5.16145         2.74343
   H       12.33506         8.86174         0.05724
   H       12.19318         7.23704         0.76951
   H       13.44282         8.36450         1.36050
   H       12.52787        13.44035         0.82439
   H       11.79540        14.82565         2.77133
   H        8.34895         3.69635         2.69557
   H        2.95825         6.12708        -2.66015
   H        4.52024         6.48008        -1.93021
   H        1.91924         6.20833        -0.34040
   H        2.67621         7.73455        -0.81540
   H        3.49189         6.65469         0.30985
   H        1.71315         2.92720        -3.73602
   H        0.93188         5.40722        -2.12032
   H        0.12383         3.22244        -5.14248
   H       -3.40300         5.62850        -5.77226
   H       -2.69982         6.93060        -3.76112
*
