# ORCA input file
# SCF done       -152.143517914492          0.000494483239
! CAM-B3LYP def2-SVP def2/J RIJCOSX Grid4 TightSCF
%maxcore 5000
%tddft
    Mode sTDDFT
    Ethresh 5.0
    maxcore 5000
end

%pal
  nprocs 6
  end
* xyz 0 1
   C        3.51173        -2.45087         3.78808
   C        4.36283        -2.06767         2.83674
   C        5.08925        -2.96373         1.97935
   C        5.07098        -4.35705         1.96839
   C        5.95632        -4.78624         0.99324
   C        6.52184        -3.65411         0.40408
   C        7.51527        -3.58075        -0.60962
   C        8.06699        -4.65337        -1.22780
   C        9.08439        -4.59411        -2.21051
   C        9.76973        -3.57488        -2.77116
   C       10.75450        -3.98824        -3.73078
   C       11.71171        -3.38986        -4.52257
   N       12.36294        -4.37805        -5.19523
   C       11.84961        -5.61312        -4.87033
   C       12.35883        -6.82567        -5.42516
   C       11.76930        -8.02998        -5.27296
   C       12.29067        -9.23904        -5.81278
   C       13.53865        -9.56595        -6.19536
   C       13.66565       -10.89649        -6.71653
   C       14.68745       -11.68676        -7.20640
   N       14.15288       -12.88106        -7.54362
   C       12.80323       -12.90016        -7.28832
   C       12.02410       -14.07568        -7.57367
   C       10.65556       -14.15731        -7.36650
   F       10.00511       -13.09655        -6.87876
   C        9.88498       -15.29556        -7.63051
   C       10.44632       -16.45492        -8.11709
   C        9.65426       -17.65455        -8.37917
   C       10.07612       -18.92277        -8.04165
   F       11.21915       -19.10168        -7.36509
   C        9.31306       -20.07826        -8.33306
   F        9.81387       -21.26489        -7.95934
   C        8.10430       -20.02479        -8.96688
   C        7.62560       -18.75246        -9.31554
   N        6.47887       -18.45988        -9.92946
   S        6.38130       -16.86869       -10.11014
   N        7.77593       -16.46289        -9.42919
   C        8.39201       -17.56964        -9.01631
   C       11.83572       -16.42738        -8.38278
   N       12.56836       -17.39629        -8.92867
   S       14.08309       -16.90837        -9.05714
   N       13.89846       -15.42476        -8.44833
   C       12.61715       -15.24953        -8.11045
   C       12.47617       -11.66213        -6.76728
   S       11.15707       -10.63743        -6.10824
   O       10.66119       -11.16033        -4.87086
   O       10.22621       -10.27104        -7.13651
   C       10.84259        -5.38286        -3.95777
   S        9.66480        -6.17824        -2.89147
   O       10.33270        -6.94601        -1.87465
   O        8.62154        -6.82873        -3.63496
   N        5.96430        -2.55366         1.01082
   C        6.28738        -1.18529         0.69680
   C        7.47674        -0.68628         1.51692
   H        3.00184        -1.73201         4.40484
   H        3.29928        -3.48680         3.98265
   H        4.53606        -1.00868         2.69788
   H        4.47822        -4.98041         2.60692
   H        6.17929        -5.80175         0.73620
   H        7.86831        -2.59944        -0.89488
   H        7.74553        -5.65356        -0.97882
   H        9.62305        -2.53261        -2.53580
   H       11.97286        -2.35828        -4.64930
   H       13.10688        -4.23195        -5.85864
   H       13.26638        -6.74014        -6.00961
   H       10.82745        -8.10766        -4.74655
   H       14.39796        -8.92002        -6.10092
   H       15.73131       -11.47907        -7.33273
   H       14.62443       -13.69101        -7.93265
   H        8.82774       -15.24442        -7.42767
   H        7.54005       -20.91544        -9.18412
   H        5.41178        -0.56074         0.88886
   H        6.50838        -1.11181        -0.37093
   H        7.24989        -0.73787         2.57935
   H        7.70597         0.34401         1.25709
   H        8.35277        -1.30124         1.32461
*
