# ORCA input file
# SCF done       -118.558415600890          0.000589383891
! CAM-B3LYP def2-SVP def2/J RIJCOSX Grid4 TightSCF
%maxcore 5000
%tddft
    Mode sTDDFT
    Ethresh 5.0
    maxcore 5000
end

%pal
  nprocs 6
  end
* xyz 0 1
   N       -1.77010        -2.50142        -7.09891
   C       -2.00126        -2.89721        -6.04490
   C       -2.28555        -3.37286        -4.75505
   C       -1.99208        -4.72458        -4.51194
   N       -1.75004        -5.82982        -4.31211
   C       -2.82122        -2.55489        -3.77940
   C       -3.11855        -1.16470        -4.02053
   C       -3.62740        -0.41251        -3.03315
   O       -3.89422        -0.86233        -1.79512
   C       -3.63480        -2.16779        -1.52943
   C       -3.94845        -2.56555        -0.19059
   O       -3.77611        -3.86054         0.18856
   C       -4.13703        -3.95876         1.48168
   C       -4.07283        -5.21971         2.14093
   C       -3.70795        -6.43443         1.61911
   C       -3.77668        -7.48004         2.55265
   C       -3.36297        -8.86195         2.16248
   F       -2.78427        -8.88137         0.95376
   F       -2.46503        -9.40369         3.00602
   F       -4.39134        -9.72937         2.08687
   C       -4.20763        -7.08333         3.81648
   C       -4.45175        -7.85053         4.98609
   S       -4.59799        -9.59067         4.93663
   C       -4.90571        -9.66830         6.63062
   C       -5.13308       -10.92980         7.24903
   O       -5.38224       -11.06103         8.57350
   C       -5.54786       -12.36495         8.82078
   C       -5.41466       -13.10898         7.68442
   C       -5.14439       -12.18152         6.65318
   O       -4.93246       -12.38809         5.33757
   C       -4.89594        -8.41304         7.21517
   C       -4.66486        -7.38386         6.28055
   S       -4.65680        -5.68728         6.72545
   C       -5.35322        -5.86924         8.40522
   C       -4.70471        -7.04824         9.11049
   O       -5.10412        -8.27811         8.55280
   S       -4.50047        -5.36547         3.81961
   C       -4.54634        -2.73025         1.96134
   C       -4.42911        -1.82979         0.88825
   O       -4.71206        -0.51667         0.86829
   C       -3.11741        -3.01653        -2.46363
   H       -2.92729        -0.74155        -4.99293
   H       -3.87396         0.63350        -3.13735
   H       -3.39527        -6.56549         0.59929
   H       -5.75517       -12.64977         9.83301
   H       -5.49802       -14.17292         7.59273
   H       -4.97463       -13.33018         5.13661
   H       -6.42968        -6.01674         8.31855
   H       -5.14363        -4.93431         8.91939
   H       -3.61108        -6.94748         9.07269
   H       -5.02451        -7.09466        10.15445
   H       -4.88509        -2.52203         2.95634
   H       -5.02761        -0.23913         1.73700
   H       -2.92957        -4.04354        -2.19595
*
