# ORCA input file
# SCF done       -143.258720842290          0.000569192762
! CAM-B3LYP def2-SVP def2/J RIJCOSX Grid4 TightSCF
%maxcore 5000
%tddft
    Mode sTDDFT
    Ethresh 5.0
    maxcore 5000
end

%pal
  nprocs 6
  end
* xyz 0 1
   O        2.33247         2.82534         2.11266
   N        2.64846         1.68527         1.81029
   O        3.42574         1.00578         2.46639
   C        2.07483         1.14697         0.64173
   C        1.18696         1.91512        -0.13594
   C        0.71127         1.25250        -1.23557
   C       -0.19210         1.71708        -2.22157
   S       -0.87446         3.32090        -2.14219
   C       -1.80059         3.12201        -3.58382
   C       -1.59141         1.87491        -4.10028
   N       -1.98247         1.10911        -5.15499
   N       -1.39578        -0.10306        -5.11758
   C       -0.62693        -0.15713        -4.06330
   C       -0.68299         1.06534        -3.34203
   S        1.37160        -0.36731        -1.32220
   C        2.29794        -0.14480         0.14149
   C        3.11103        -1.16467         0.66307
   C        3.23615        -2.40508         0.10430
   C        4.04148        -3.43350         0.62141
   C        4.16627        -4.69996         0.08057
   C        5.05278        -5.43570         0.88188
   N        5.61673        -6.66305         0.97263
   C        6.43572        -6.69346         2.07944
   C        7.15486        -7.86251         2.41980
   C        7.98911        -7.98926         3.48660
   C        8.70839        -9.15998         3.82808
   C        8.71676       -10.37968         3.19121
   C        9.58593       -11.23955         3.89565
   N       10.06198       -12.50216         3.85776
   C       10.92404       -12.68023         4.91929
   C       11.57012       -13.92608         5.11912
   C       12.38152       -14.22119         6.16219
   C       13.04062       -15.46735         6.38002
   S       13.53795       -15.85830         8.00493
   C       14.16851       -17.37152         7.51372
   C       14.02661       -17.57290         6.17318
   C       13.39649       -16.48486         5.51436
   C       13.20709       -16.46795         4.02991
   F       11.89802       -16.76504         3.69027
   C       14.15120       -17.48645         3.38490
   F       13.94192       -17.54363         2.03049
   C       14.02107       -18.87133         4.02070
   F       12.72596       -19.31385         4.03623
   C       14.53041       -18.79378         5.46441
   F       15.91700       -18.76775         5.41393
   C       10.98667       -11.47730         5.64223
   C       10.15061       -10.58108         5.00034
   C        9.62477        -9.19049         5.03828
   C        6.37893        -5.43188         2.70352
   C        5.51802        -4.65270         1.95649
   C        4.89867        -3.30379         1.86560
   H        0.91578         2.92394         0.11879
   H       -2.41827         3.92154        -3.93606
   H       -2.61482         1.33635        -5.90212
   H       -0.06257        -1.04019        -3.84297
   H        3.65189        -0.92190         1.56518
   H        2.67649        -2.62699        -0.79723
   H        3.66350        -5.05054        -0.80293
   H        5.47583        -7.43980         0.34823
   H        7.01280        -8.71083         1.76297
   H        8.12760        -7.13715         4.13762
   H        8.16074       -10.64286         2.31042
   H        9.83411       -13.21850         3.18773
   H       11.34021       -14.68379         4.38558
   H       12.52188       -13.48657         6.94239
   H       14.61736       -18.02741         8.23205
   H       13.39609       -15.46915         3.61123
   H       15.18791       -17.14977         3.52597
   H       14.60224       -19.60376         3.44585
   H       14.26283       -19.70979         6.00601
   H       11.57882       -11.31085         6.51991
   H       10.41404        -8.44134         4.95012
   H        9.07022        -8.97763         5.95435
   H        6.91247        -5.15458         3.59034
   H        5.64055        -2.51163         1.75383
   H        4.29358        -3.06444         2.74137
*
