# ORCA input file
# SCF done       -184.335549076756          0.000223020144
! CAM-B3LYP def2-SVP def2/J RIJCOSX Grid4 TightSCF
%maxcore 5000
%tddft
    Mode sTDDFT
    Ethresh 5.0
    maxcore 5000
end

%pal
  nprocs 6
  end
* xyz 0 1
   O       14.43893        -5.65324        -7.33561
   C       13.77932        -4.66105        -7.50564
   C       12.30063        -4.49605        -7.46074
   C       11.07944        -5.15450        -7.26381
   C       10.09916        -4.18266        -7.41649
   C        8.68006        -4.31509        -7.33447
   C        7.84031        -3.28508        -7.51016
   N        6.45065        -3.36029        -7.47223
   C        5.67083        -2.21911        -7.69041
   O        6.09837        -1.11686        -7.89816
   C        4.25944        -2.67716        -7.61533
   C        3.09785        -1.93704        -7.75497
   C        1.92596        -2.67091        -7.64616
   C        0.51540        -2.23412        -7.80251
   O        0.06865        -1.15319        -8.01178
   O       -0.26812        -3.35955        -7.66954
   C        0.49428        -4.47499        -7.42801
   O        0.02121        -5.56154        -7.28954
   C        1.91181        -4.04297        -7.39532
   C        3.08426        -4.79710        -7.23510
   C        3.08883        -6.22385        -6.97837
   S        3.95766        -7.29334        -8.01761
   C        3.52027        -8.67618        -7.06989
   C        4.03829        -9.94140        -7.47540
   C        3.63118       -11.15927        -7.05729
   C        4.25647       -12.37429        -7.45547
   S        5.54763       -12.40700        -8.62460
   C        5.67052       -14.12876        -8.50300
   C        6.68922       -14.83706        -9.19907
   N        7.00692       -16.06295        -8.96980
   C        8.02598       -16.48987        -9.75511
   C        8.58726       -17.76561        -9.74226
   C        9.62789       -18.04145       -10.60095
   C       10.12094       -17.07046       -11.47254
   C        9.58046       -15.80013       -11.50576
   C        8.53379       -15.51384       -10.64651
   S        7.65773       -14.02922       -10.45279
   C        4.73322       -14.65162        -7.62620
   C        3.96293       -13.65039        -7.00402
   C        3.01367       -13.95748        -5.86976
   O        3.05442       -12.98085        -4.85222
   C        3.33905       -15.34977        -5.31590
   C        3.35734       -16.37427        -6.44184
   C        4.51739       -16.10901        -7.39869
   S        4.20662       -16.97569        -8.99716
   C        2.75143        -8.29810        -5.97969
   C        2.49197        -6.91099        -5.94498
   C        1.79880        -6.24117        -4.79476
   F        2.74360        -5.61215        -4.00644
   C        1.01582        -7.28226        -3.99379
   F        0.46650        -6.71356        -2.87489
   C        1.87687        -8.49051        -3.62951
   F        3.02376        -8.12779        -2.97475
   C        2.26693        -9.23228        -4.91336
   F        1.14425        -9.91825        -5.35034
   C        4.26148        -4.05304        -7.37302
   C        5.67638        -4.50079        -7.25723
   O        6.09615        -5.60379        -7.02351
   O       10.66508        -2.96664        -7.69613
   C       11.97552        -3.16672        -7.71988
   C       13.17058        -2.41266        -7.94124
   S       13.65328        -0.81689        -8.30469
   C       15.31143        -1.30722        -8.29477
   C       15.48404        -2.63367        -8.02473
   C       14.25486        -3.27917        -7.81957
   H       10.91181        -6.18806        -7.04193
   H        8.31533        -5.30802        -7.12677
   H        8.19326        -2.28325        -7.71339
   H        3.10417        -0.87623        -7.94379
   H        4.84487        -9.88858        -8.19726
   H        2.78669       -11.27999        -6.39901
   H        8.19333       -18.50717        -9.06629
   H       10.07203       -19.02537       -10.60232
   H       10.93879       -17.31512       -12.13315
   H        9.95931       -15.04736       -12.17925
   H        1.97796       -13.93225        -6.23308
   H        3.92245       -13.00840        -4.43227
   H        2.59239       -15.61883        -4.56801
   H        4.31736       -15.31866        -4.82681
   H        2.41188       -16.31140        -6.98670
   H        3.44328       -17.38452        -6.04148
   H        5.44550       -16.57116        -7.05315
   H        3.05781       -16.34935        -9.26059
   H        1.11571        -5.44842        -5.11589
   H        0.17921        -7.63435        -4.61330
   H        1.32275        -9.15802        -2.95759
   H        3.02181        -9.99390        -4.67894
   H       16.06458        -0.57088        -8.49264
   H       16.44195        -3.11762        -7.97690
*
