# ORCA input file
# SCF done       -132.477129328641          0.000959652239
! CAM-B3LYP def2-SVP def2/J RIJCOSX Grid4 TightSCF
%maxcore 5000
%tddft
    Mode sTDDFT
    Ethresh 5.0
    maxcore 5000
end

%pal
  nprocs 6
  end
* xyz 0 2
   C        3.65693         0.83359        11.22917
   C        2.64087         0.85471        10.37008
   C        2.72957         0.37701         9.01262
   C        1.71684         0.37577         8.09846
   C        0.34331         0.87991         8.31195
   C       -0.53642         0.83782         7.09480
   O       -0.03930         1.29363         9.38282
   S        2.09070        -0.25015         6.50567
   C        3.75904        -0.61233         6.82005
   C        4.64602        -1.24117         5.97240
   S        6.11448        -1.88812         6.70607
   C        6.58609        -2.69421         5.24312
   C        7.84044        -3.40481         5.21247
   C        8.24142        -4.19631         6.29780
   N        9.38596        -4.84010         6.34049
   C       10.20349        -4.75957         5.30891
   C        9.91843        -4.01139         4.16310
   C       10.87253        -3.93818         3.05551
   C       11.11763        -2.73584         2.38841
   N       11.95260        -2.62808         1.37407
   C       12.64404        -3.68131         1.00361
   C       12.54382        -4.92811         1.63701
   C       13.35893        -6.04265         1.20765
   C       14.67170        -6.00500         0.89759
   C       15.29151        -7.13679         0.13268
   O       14.80477        -8.22373        -0.05766
   C       16.56442        -6.59113        -0.35187
   C       16.76402        -5.27395         0.18091
   C       17.92743        -4.70053        -0.22842
   S       18.80560        -5.75202        -1.27777
   C       17.58556        -6.99810        -1.15780
  Cl       17.75028        -8.47410        -1.97200
   C       15.66178        -4.94676         1.06374
   C       15.68186        -3.94675         1.99657
   C       14.74016        -3.78252         3.03194
   N       14.04985        -3.64225         3.93810
   C       16.74483        -3.02040         2.05240
   N       17.59852        -2.25579         2.09535
   C       11.59894        -5.05282         2.65294
   C        8.72314        -3.30521         4.13578
   C        5.65248        -2.49127         4.23041
   C        5.63066        -3.10585         2.94546
   C        6.49586        -4.16048         2.59968
   N        7.14461        -5.05026         2.27181
   C        4.68129        -2.71007         2.01251
   C        3.77462        -1.70743         2.30933
   C        3.71864        -1.14482         3.58841
   C        2.84386        -0.05208         3.73682
   N        2.16568         0.87450         3.75763
   C        4.59210        -1.59491         4.59487
   S        4.26699        -0.24286         8.45209
   H        3.54371         1.20159        12.23316
   H        4.62860         0.44908        10.96037
   H        1.67220         1.23957        10.65470
   H       -0.08074         1.39385         6.27683
   H       -1.50558         1.26659         7.33532
   H       -0.66743        -0.19256         6.76732
   H        7.59482        -4.31247         7.15814
   H       11.14415        -5.28223         5.41156
   H       10.63020        -1.81897         2.69027
   H       13.29495        -3.54686         0.14890
   H       12.85548        -6.99111         1.05166
   H       18.32695        -3.73345         0.00419
   H       11.45718        -6.00385         3.14408
   H        8.48415        -2.67474         3.29174
   H        4.67105        -3.17855         1.03995
   H        3.09126        -1.35129         1.55398
*
