# ORCA input file
# SCF done       -194.593337185637          0.000319246231
! CAM-B3LYP def2-SVP def2/J RIJCOSX Grid4 TightSCF
%maxcore 5000
%tddft
    Mode sTDDFT
    Ethresh 5.0
    maxcore 5000
end

%pal
  nprocs 6
  end
* xyz 0 1
   C       -2.11257         7.22070       -15.78016
   C       -1.23301         7.26769       -14.78181
   C        0.19114         7.36127       -14.94156
   C        0.99348         7.43129       -16.07156
   C        2.31081         7.50478       -15.59826
   C        2.21609         7.47448       -14.19900
   O        0.95172         7.38900       -13.80338
   C        3.53102         7.54199       -13.66318
   O        4.15828         7.55375       -12.49349
   C        5.49868         7.63085       -12.77744
   C        6.44874         7.64950       -11.72464
   C        6.12347         7.61984       -10.40931
   C        7.07342         7.61090        -9.35526
   C        6.85071         7.58700        -7.97680
   C        8.11678         7.56355        -7.39037
   C        9.03456         7.57650        -8.45446
   O        8.41181         7.60522        -9.63039
   C       10.34225         7.53523        -7.91020
   O       11.60330         7.50105        -8.29603
   C       12.35701         7.41435        -7.15042
   C       13.78136         7.37232        -7.30448
   C       14.44016         8.04748        -8.35105
   C       13.86844         9.07120        -9.25562
   O       12.79228         9.58252        -9.27788
   O       14.87339         9.45288       -10.10930
   C       16.05061         8.82577        -9.80084
   O       17.04290         9.05617       -10.42598
   C       15.80089         7.93088        -8.64309
   C       16.66704         7.08825        -7.89600
   C       18.02899         6.75116        -8.13557
   C       18.89583         7.28707        -9.03559
   C       20.20991         6.79613        -9.20876
   C       21.22257         7.27806       -10.04254
   C       22.30477         6.41765        -9.86659
   C       21.87584         5.45139        -8.93009
   O       20.63535         5.67689        -8.53293
   C       22.92723         4.52355        -8.73984
   O       23.20411         3.40690        -8.07292
   C       24.47242         3.04483        -8.43133
   C       24.99968         1.85137        -7.87411
   C       26.23293         1.35428        -8.13293
   C       26.72079         0.13678        -7.59051
   C       27.95717        -0.47964        -7.77879
   C       27.90887        -1.66199        -7.03537
   C       26.63988        -1.68770        -6.44040
   O       25.92652        -0.61727        -6.76643
   C       26.53630        -2.88529        -5.67308
   O       25.67622        -3.53397        -4.89513
   C       26.30969        -4.66801        -4.50594
   C       27.57328        -4.75902        -5.02500
   C       27.73874        -3.59014        -5.79815
   C       28.66127        -2.86039        -6.65661
   S       30.17169        -3.27203        -7.09861
   C       25.00668         3.95928        -9.34324
   C       24.01079         4.91429        -9.54735
   C       23.66928         6.12830       -10.28894
   S       24.59649         6.95099       -11.34201
   C       16.01039         6.48957        -6.79013
   C       16.58751         5.59591        -5.75911
   O       17.70479         5.20870        -5.59577
   O       15.56640         5.22421        -4.91842
   C       14.38043         5.79663        -5.29873
   O       13.36368         5.59412        -4.70984
   C       14.65736         6.62509        -6.49616
   C       11.54080         7.39250        -6.02424
   C       10.23289         7.48257        -6.50529
   C        8.83074         7.51399        -6.11313
   S        8.19677         7.49664        -4.61598
   C        5.70717         7.66937       -14.15527
   C        4.43662         7.61271       -14.73420
   C        3.70980         7.59496       -16.00241
   S        4.32008         7.65848       -17.50916
   H       -3.16818         7.14962       -15.58960
   H       -1.80771         7.25079       -16.81132
   H       -1.56327         7.23442       -13.75250
   H        0.66093         7.42834       -17.08844
   H        7.48513         7.68602       -12.02522
   H        5.08692         7.59401       -10.10853
   H        5.89496         7.58531        -7.49476
   H       18.41028         5.96210        -7.50242
   H       18.62689         8.11501        -9.67045
   H       21.14934         8.13647       -10.67821
   H       24.33851         1.31701        -7.20692
   H       26.91373         1.87427        -8.78889
   H       28.76218        -0.10421        -8.37616
   H       25.76150        -5.32779        -3.86359
   H       28.27479        -5.55208        -4.87039
   H       25.97888         3.91668        -9.78785
   H       11.86459         7.32770        -5.00704
   H        6.65721         7.73034       -14.64488
*
