# ORCA input file
# SCF done       -161.877930778966          0.000734600878
! CAM-B3LYP def2-SVP def2/J RIJCOSX Grid4 TightSCF
%maxcore 5000
%tddft
    Mode sTDDFT
    Ethresh 5.0
    maxcore 5000
end

%pal
  nprocs 6
  end
* xyz 0 1
   O        0.71161        -1.41870        -1.19825
   C        1.11892        -1.29105        -2.32650
   O        0.79199        -2.16707        -3.27839
   C        1.96382        -0.16366        -2.75585
   C        2.50785         0.84900        -1.97363
   C        2.59477         1.08446        -0.56429
   S        2.47542         2.74448        -0.03906
   C        2.68966         2.27245         1.59205
   C        2.86994         0.92955         1.73086
   C        2.82951         0.23748         0.49323
   C        3.06964        -1.23060         0.40890
   C        3.76751        -1.74374         1.66446
   C        2.99898        -1.26679         2.89929
   N        3.59516        -1.92412         4.08521
   O        2.96258        -2.81096         4.60279
   O        4.68868        -1.54920         4.43612
   C        3.12066         0.24744         3.04032
   O        3.04272         1.79997        -2.76083
   C        2.88168         1.43583        -4.06280
   C        3.35994         2.28150        -5.10606
   S        3.24347         1.78073        -6.76689
   C        3.98356         3.25924        -7.29834
   C        4.11976         3.57502        -8.67695
   O        4.50130         4.82447        -9.01233
   C        4.55806         4.91852       -10.37271
   C        4.90336         6.16283       -10.99207
   S        5.41992         6.20742       -12.65867
   C        5.58544         7.91562       -12.60161
   C        5.27424         8.42567       -11.38035
   C        4.88206         7.42696       -10.45272
   C        4.47531         7.75053        -9.05096
   C        4.13963         9.22602        -8.89897
   N        2.83725         9.54383        -9.54675
   O        2.46434        10.68844        -9.45877
   O        2.24743         8.65910       -10.11419
   C        5.21218        10.11437        -9.53424
   C        5.27955         9.88531       -11.04456
   C        4.21368         3.70068       -10.91921
   O        4.13782         3.34304       -12.22542
   C        3.91546         2.82263        -9.83680
   C        3.47262         1.43540        -9.94695
   O        3.16413         0.75947        -8.98806
   O        3.41358         0.92655       -11.17505
   C        4.33813         4.05876        -6.21834
   C        3.96507         3.51973        -4.97905
   C        4.18289         4.22312        -3.67414
   C        4.63705         5.66475        -3.88007
   N        3.46315         6.54304        -4.16831
   O        3.62672         7.45875        -4.94041
   O        2.43769         6.30760        -3.58338
   C        5.67091         5.77655        -4.99239
   C        5.07180         5.35474        -6.33338
   C        2.22884         0.21654        -4.10631
   O        1.87533        -0.53004        -5.17615
   H        1.12120        -1.89998        -4.15423
   H        2.67608         3.01561         2.36450
   H        3.66247        -1.46361        -0.47769
   H        2.10434        -1.73134         0.28688
   H        4.79114        -1.36561         1.71756
   H        3.80188        -2.83443         1.64072
   H        1.95628        -1.59086         2.84186
   H        4.13491         0.48066         3.38295
   H        2.42234         0.62095         3.79318
   H        5.89824         8.43959       -13.48209
   H        5.29446         7.51126        -8.36810
   H        3.61701         7.13798        -8.76927
   H        4.01949         9.48313        -7.84102
   H        6.17172         9.87352        -9.07414
   H        4.98674        11.16246        -9.33333
   H        6.17273        10.36010       -11.45488
   H        4.41777        10.35801       -11.52715
   H        4.30728         4.10401       -12.79573
   H        3.65894         1.57854       -11.85469
   H        4.93348         3.68711        -3.08844
   H        3.25846         4.21258        -3.09170
   H        5.04390         6.05193        -2.93794
   H        6.50925         5.12673        -4.73764
   H        6.03953         6.80039        -5.06553
   H        5.86323         5.26543        -7.07884
   H        4.38374         6.12729        -6.68394
   H        2.12161        -0.10532        -6.00929
*
