# ORCA input file
# SCF done       -114.848885105841          0.000242236066
! CAM-B3LYP def2-SVP def2/J RIJCOSX Grid4 TightSCF
%maxcore 5000
%tddft
    Mode sTDDFT
    Ethresh 5.0
    maxcore 5000
end

%pal
  nprocs 6
  end
* xyz 0 1
   C       14.11488         2.09984        -8.82547
   N       13.59900         1.51034        -7.83269
   N       14.15350         1.60651        -6.63145
   C       13.62157         0.97889        -5.52677
   C       14.24796         1.11693        -4.28515
   C       13.73134         0.49272        -3.17417
   C       12.57435        -0.28887        -3.26569
   C       12.02573        -0.95606        -2.11372
   N       12.56137        -0.86786        -0.95668
   N       12.01487        -1.51455         0.06655
   C       12.53488        -1.46556         1.33531
   C       13.66721        -0.70055         1.62776
   C       14.16751        -0.66760         2.90812
   C       13.57635        -1.40986         3.93541
   C       14.11254        -1.36766         5.28923
   C       14.52720        -0.16745         5.86858
   C       14.97972        -0.09398         7.24903
   C       15.05627        -1.21234         8.06510
   C       15.51443        -1.02849         9.47349
   O       15.96874        -2.18583        10.18207
   C       17.18553        -1.54743        10.55569
   C       16.89601        -0.34052         9.64713
   C       16.92130         1.01582        10.22098
   C       17.55099         2.12652         9.73324
   C       17.35162         3.27063        10.51948
   C       16.56588         3.03844        11.61823
   C       16.18988         4.03477        12.62751
   O       16.55450         5.17882        12.56565
   O       15.41197         3.60893        13.64042
   S       16.05924         1.37333        11.67410
   C       14.68865        -2.44170         7.48607
   C       14.71582        -3.68815         8.08554
   S       14.24073        -4.91989         7.01716
   C       13.96776        -3.82747         5.74395
   C       14.22521        -2.51719         6.10870
   N       15.28781         1.16941         7.60514
   S       15.02829         2.13074         6.35124
   N       14.52384         1.04724         5.29380
   C       12.43617        -2.16109         3.63637
   C       11.91846        -2.18622         2.36141
   C       11.95385        -0.41764        -4.51251
   C       12.46495         0.20400        -5.62858
   H       13.62957         1.99157        -9.77724
   H       15.02002         2.70808        -8.76941
   H       15.00252         2.16161        -6.50515
   H       15.14326         1.71786        -4.20475
   H       14.20929         0.59393        -2.21320
   H       11.11816        -1.55517        -2.27194
   H       11.17508        -2.07899        -0.08537
   H       14.13200        -0.14249         0.83152
   H       15.04013        -0.07325         3.12710
   H       14.73358        -0.51286        10.05479
   H       18.06146        -2.14641        10.29774
   H       17.19843        -1.30684        11.62446
   H       17.47686        -0.35835         8.72424
   H       18.13459         2.11433         8.83096
   H       17.76134         4.24114        10.30707
   H       15.18812         2.67086        13.57383
   H       15.00605        -3.91473         9.08967
   H       13.66928        -4.19591         4.78431
   H       11.92752        -2.69353         4.42598
   H       11.02620        -2.75949         2.15048
   H       11.05829        -1.01629        -4.60026
   H       11.99027         0.10649        -6.59148
*
