# ORCA input file
# SCF done       -199.084786492936          0.000684167059
! CAM-B3LYP def2-SVP def2/J RIJCOSX Grid4 TightSCF
%maxcore 5000
%tddft
    Mode sTDDFT
    Ethresh 5.0
    maxcore 5000
end

%pal
  nprocs 6
  end
* xyz 0 1
   C       -0.98246        -5.01297        -4.10092
   C       -0.12914        -4.11511        -3.20859
   N        1.27320        -4.23982        -3.51595
   C        2.08468        -5.26422        -3.13611
   C        3.32670        -5.07144        -3.66597
   C        4.67640        -5.58442        -3.72221
   O        5.19683        -6.57715        -3.26733
   N        5.38381        -4.62383        -4.49326
   C        6.73772        -4.88514        -4.92402
   C        6.77498        -5.36330        -6.37344
   C        4.55699        -3.61271        -4.89888
   N        4.96647        -2.52252        -5.64176
   C        5.99668        -1.66583        -5.31214
   O        6.82544        -1.86455        -4.45620
   C        5.89488        -0.44064        -6.21746
   C        7.19616        -0.29743        -7.04082
   C        7.62285        -1.69169        -7.47777
   O        7.00288        -2.46548        -8.16830
   N        8.83143        -1.97800        -6.87130
   C        9.36424        -3.25077        -6.95024
   C       10.08435        -3.83550        -5.97751
   C       10.62596        -5.15336        -5.98863
   S       11.05894        -5.82345        -4.43633
   C       11.55456        -7.31688        -5.13338
   N       12.10221        -8.36998        -4.45933
   C       12.39980        -8.52996        -3.14250
   S       13.39287        -9.86905        -2.66927
   C       13.34678        -9.45137        -0.97246
   C       14.04687       -10.25449        -0.04103
   S       14.90437       -11.68691        -0.63058
   C       15.47982       -12.08351         0.95158
   C       15.04679       -11.18600         1.86265
   C       14.23142       -10.14188         1.31680
   C       13.85423        -9.26648         2.39969
   C       14.39239        -9.71960         3.55201
   C       15.18095       -10.94993         3.32430
   O       15.79356       -11.60820         4.13317
   C       12.57133        -8.30779        -0.79648
   N       12.29054        -7.70032         0.37445
   C       11.51269        -6.65477         0.32415
   C       10.98563        -6.14132        -0.88508
   N       11.24714        -6.69356        -2.03815
   C       12.03166        -7.78121        -2.02713
   C       11.38897        -7.31378        -6.52501
   C       11.68279        -8.35228        -7.42272
   C       11.50062        -8.16575        -8.77361
   C       11.80046        -9.22325        -9.66132
   N       12.05354       -10.10586       -10.34686
   C       11.03668        -6.90784        -9.26169
   C       10.91006        -6.73004       -10.74750
   F       12.08101        -6.91043       -11.38478
   F       10.03912        -7.59296       -11.29662
   F       10.48729        -5.50264       -11.08630
   C       10.72951        -5.88808        -8.40790
   C       10.86740        -6.06466        -7.01420
   C        9.29766        -0.87617        -6.14636
   C       10.50557        -0.69439        -5.50046
   C       10.75379         0.52605        -4.87833
   C       12.04037         0.74293        -4.14215
   C        9.79947         1.53589        -4.92727
   C        8.60366         1.36488        -5.60817
   C        8.36121         0.15756        -6.22445
   C        4.68976        -0.73927        -7.04762
   C        4.08936        -0.02564        -8.06049
   C        2.97175        -0.56627        -8.68046
   C        2.46927        -1.80919        -8.31766
   C        1.25940        -2.37828        -8.99063
   C        3.08631        -2.53535        -7.30116
   C        4.17493        -1.97784        -6.66975
   C        3.28825        -3.84773        -4.42357
   C        1.95604        -3.30554        -4.33076
   O        1.43324        -2.30905        -4.78725
   H       -2.03316        -4.88755        -3.85502
   H       -0.71304        -6.05810        -3.96456
   H       -0.83507        -4.74836        -5.14513
   H       -0.28898        -4.36145        -2.15493
   H       -0.39053        -3.06689        -3.37742
   H        1.71952        -6.05087        -2.50195
   H        7.10542        -5.67393        -4.26124
   H        7.34867        -3.99132        -4.78558
   H        6.08460        -6.19359        -6.50804
   H        7.77620        -5.70628        -6.61931
   H        6.50177        -4.56532        -7.06097
   H        5.77182         0.45538        -5.60136
   H        6.99801         0.34548        -7.90195
   H        9.04026        -3.77244        -7.83886
   H       10.22625        -3.30310        -5.04719
   H       12.41780        -9.12585        -5.05610
   H       16.09574       -12.95053         1.08658
   H       13.23551        -8.39895         2.26436
   H       14.28838        -9.27806         4.52628
   H       11.28851        -6.17773         1.26840
   H       10.35206        -5.26698        -0.89870
   H       12.05231        -9.30721        -7.07658
   H       10.40857        -4.93951        -8.80316
   H       11.26123        -1.46322        -5.48979
   H       12.81206         0.06327        -4.49459
   H       11.89118         0.56482        -3.07693
   H       12.38775         1.76620        -4.26358
   H       10.00179         2.47585        -4.43628
   H        7.88273         2.16689        -5.66032
   H        4.47336         0.93642        -8.36554
   H        2.48598        -0.01040        -9.46847
   H        0.96516        -1.77579        -9.84556
   H        0.43043        -2.40813        -8.28439
   H        1.45057        -3.39606        -9.32559
   H        2.71311        -3.50825        -7.02523
*
