# ORCA input file
# SCF done       -167.914013858774          0.000239925889
! CAM-B3LYP def2-SVP def2/J RIJCOSX Grid4 TightSCF
%maxcore 5000
%tddft
    Mode sTDDFT
    Ethresh 5.0
    maxcore 5000
end

%pal
  nprocs 6
  end
* xyz 0 1
   C        1.50781        -0.09212         0.77176
   C        2.72674         0.28867         0.38903
   C        3.94569        -0.33143         0.80550
   S        4.02141        -1.68437         1.88024
   C        5.75227        -1.75690         1.83027
   C        6.46588        -2.73801         2.57116
   N        7.79243        -2.76901         2.51864
   N        8.50888        -3.63844         3.15564
   C        7.99568        -4.57033         3.94841
   C        8.84881        -5.47564         4.64849
   S        8.18040        -6.60740         5.77299
   C        9.75994        -7.18694         6.17532
   C        9.92456        -8.18529         7.18143
   N       11.13857        -8.55740         7.56618
   N       11.34986        -9.43220         8.49803
   C       10.38150       -10.06847         9.14564
   C       10.70303       -11.02690        10.15631
   C       11.97398       -11.33569        10.50197
   C       12.34000       -12.26910        11.49714
   S       11.20025       -13.18231        12.44007
   C       12.42532       -13.98612        13.32239
   C       13.67937       -13.58573        12.92845
   N       14.86340       -14.02987        13.42794
   C       15.93569       -13.50890        12.90339
   O       17.14911       -13.85841        13.33370
   C       17.21574       -14.83123        14.37284
   C       16.97706       -16.24223        13.85379
   C       15.89700       -12.51981        11.84440
   C       17.17999       -11.96907        11.28296
   N       17.01931       -10.98724        10.23400
   N       14.77123       -12.08968        11.35851
   C       13.63666       -12.60513        11.88413
   C        9.02632        -9.76535         8.81912
   N        7.89484       -10.25133         9.31991
   S        6.65587        -9.52695         8.58643
   N        7.49762        -8.56694         7.60294
   C        8.79074        -8.77908         7.81170
   C       10.75994        -6.56557         5.42605
   C       10.23648        -5.58188         4.54990
   O       10.87998        -4.84737         3.61449
   C       12.17300        -4.35314         3.88040
   C       13.23019        -5.43931         4.07069
   C       13.10781        -6.11407         5.43552
   O       12.02922        -7.01587         5.53905
   C        6.57932        -4.63332         4.10806
   N        5.83994        -5.45840         4.83861
   S        4.28702        -5.08461         4.62825
   N        4.48581        -3.85566         3.60031
   C        5.78541        -3.69326         3.38357
   C        6.25729        -0.75623         0.99876
   N        7.55789        -0.52595         0.73218
   C        7.81735         0.46450        -0.07712
   O        9.07684         0.75212        -0.39121
   C       10.07311        -0.08034         0.20550
   C       11.42935         0.37776        -0.29761
   C        6.78500         1.28725        -0.66694
   C        7.15724         2.41643        -1.59028
   N        6.04075         3.16141        -2.12963
   N        5.52725         1.07353        -0.41606
   C        5.22970         0.04897         0.42029
   H        0.62400         0.41306         0.42559
   H        1.36712        -0.92251         1.44393
   H        2.86738         1.12247        -0.28603
   H        9.86204       -11.50144        10.64430
   H       12.79153       -10.84294         9.99383
   H       12.16848       -14.70101        14.07727
   H       16.47730       -14.58356        15.14198
   H       18.22562       -14.72994        14.77682
   H       15.96231       -16.32973        13.47510
   H       17.11518       -16.95420        14.66221
   H       17.67714       -16.47211        13.05419
   H       17.77668       -12.80408        10.89871
   H       17.75300       -11.52186        12.10310
   H       16.49206       -11.39347         9.46732
   H       16.46563       -10.20963        10.57980
   H       12.40200        -3.74626         3.00149
   H       12.15128        -3.69850         4.76452
   H       14.21873        -4.98636         3.99032
   H       13.12449        -6.18929         3.28449
   H       13.98316        -6.73633         5.63441
   H       13.03403        -5.34831         6.22211
   H        9.87149        -1.12317        -0.06043
   H        9.99618        -0.00029         1.29492
   H       11.47757         0.29115        -1.37992
   H       12.20742        -0.23811         0.14322
   H       11.60032         1.41622        -0.02610
   H        7.74441         2.00710        -2.41963
   H        7.81289         3.10594        -1.04686
   H        5.43067         2.53097        -2.64066
   H        5.48901         3.54005        -1.36603
*
