# ORCA input file
# SCF done       -164.934494907195          0.000546974240
! CAM-B3LYP def2-SVP def2/J RIJCOSX Grid4 TightSCF
%maxcore 5000
%tddft
    Mode sTDDFT
    Ethresh 5.0
    maxcore 5000
end

%pal
  nprocs 6
  end
* xyz 0 1
   C        3.05781        -2.79038        -0.96855
   C        3.80398        -2.07972        -0.12797
   C        5.21244        -1.84981        -0.27724
   S        6.12902        -2.51055        -1.61231
   C        7.56764        -1.76686        -1.00115
   F        8.72674        -1.91490        -1.64807
   C        7.37625        -1.05679         0.14648
   C        6.01568        -1.11282         0.55309
   S        5.45767        -0.29076         1.99954
   C        6.97249         0.40799         2.52051
   C        8.16799         0.29191         1.92538
   C        9.38617         0.92732         2.41824
   C       10.50747         0.95145         1.60341
   C       11.68763         1.57430         1.98785
   C       11.82514         2.22055         3.20565
   C       13.06507         2.89883         3.50347
   C       13.25792         3.82375         4.45626
   C       14.50546         4.51899         4.70768
   C       15.75529         4.12010         4.21464
   C       16.84281         4.88639         4.59655
   N       16.73208         5.95967         5.35744
   C       15.50510         6.29347         5.75026
   C       15.33033         7.49792         6.56266
   C       14.24423         7.60620         7.40981
   C       14.04543         8.72471         8.21220
   C       14.93436         9.78847         8.21090
   C       14.79606        10.96800         9.02146
   C       13.80453        11.23662         9.89251
   C       13.72160        12.43791        10.65190
   S       14.91940        13.70924        10.52143
   C       14.05588        14.65168        11.68896
   F       14.51219        15.85152        12.05197
   C       12.92634        14.04917        12.15682
   C       12.74199        12.77593        11.55435
   S       11.37646        11.73543        11.93831
   C       10.58530        12.78314        13.11458
   C       11.01326        13.97890        13.49680
   O       12.12236        14.64779        13.08295
   C       16.05975         9.70700         7.33706
   N       16.95127        10.71490         7.31367
   C       17.97667        10.64970         6.50208
   C       18.91405        11.82076         6.53185
   C       18.46958        12.88263         5.52296
   C       18.12309         9.54964         5.60965
   C       19.25861         9.41601         4.63908
   C       20.40094         8.63491         5.29291
   N       17.27032         8.55907         5.62487
   C       16.24829         8.57784         6.49716
   N       14.40315         5.60331         5.47677
   C       10.71272         2.16327         4.09618
   N       10.82267         2.67448         5.33399
   C        9.81582         2.61999         6.16721
   C       10.07108         3.14924         7.54679
   C       10.57745         2.02322         8.45176
   C        8.59133         2.02225         5.76795
   C        7.36618         1.97939         6.63212
   C        6.55004         3.26199         6.45198
   N        8.47241         1.49406         4.57578
   C        9.49876         1.52924         3.70573
   O        8.39921        -0.40869         0.75742
   H        2.00411        -2.92915        -0.80842
   H        3.48650        -3.25280        -1.84232
   H        3.36786        -1.61628         0.74798
   H        6.88707         0.96909         3.43328
   H       10.45780         0.48521         0.63210
   H       12.51918         1.57409         1.29742
   H       13.87778         2.64550         2.83244
   H       12.43822         4.13096         5.08589
   H       15.87321         3.24657         3.59549
   H       17.85011         4.63124         4.28910
   H       13.54201         6.78726         7.44324
   H       13.17977         8.75302         8.85619
   H       15.58390        11.69835         8.88674
   H       12.99503        10.54014        10.06615
   H        9.68589        12.35494        13.51620
   H       10.47535        14.56763        14.22517
   H       19.93380        11.50264         6.31499
   H       18.88405        12.25185         7.53354
   H       18.46473        12.48250         4.51109
   H       19.14245        13.73618         5.55553
   H       17.46458        13.22164         5.76169
   H       19.61150        10.39201         4.30687
   H       18.89741         8.85423         3.77702
   H       20.77379         9.15437         6.17373
   H       21.22191         8.50891         4.59096
   H       20.04267         7.65463         5.59637
   H        9.16658         3.58837         7.96741
   H       10.83997         3.91973         7.47837
   H       10.77432         2.40443         9.45070
   H       11.49903         1.61103         8.04817
   H        9.84556         1.22105         8.52397
   H        7.63857         1.85691         7.68016
   H        6.76155         1.12494         6.32445
   H        7.13396         4.13707         6.72941
   H        5.65805         3.22867         7.07262
   H        6.24668         3.36952         5.41321
*
