# ORCA input file
# SCF done       -134.797858134644          0.000460513421
! CAM-B3LYP def2-SVP def2/J RIJCOSX Grid4 TightSCF
%maxcore 5000
%tddft
    Mode sTDDFT
    Ethresh 5.0
    maxcore 5000
end

%pal
  nprocs 6
  end
* xyz 0 1
   C        1.17840         1.10964        -0.90858
   C        1.92991         1.91265        -0.15034
   C        2.07566         1.79277         1.26374
   S        2.94771         3.01967         2.13915
   C        2.65152         2.30468         3.71411
   C        2.99836         2.94497         4.91230
   C        3.39796         4.23818         5.14996
   C        3.47955         5.40284         4.27404
   C        4.63717         6.12827         4.17562
   S        4.51649         7.49664         3.16953
   C        2.82008         7.17386         2.90904
   C        2.14196         8.22845         2.20857
   O        2.67407         8.98531         1.42807
   C        0.66572         8.54846         2.59856
   F        0.19599         7.85225         3.64492
   F        0.57304         9.83837         2.93118
   F       -0.18494         8.34161         1.58129
   C        2.41019         5.99292         3.52059
   C        1.17273         5.29329         3.28643
   C        0.57464         4.43771         4.15682
   C       -0.36408         3.61715         3.45969
   C       -0.38575         4.03426         2.09289
   C       -1.14964         3.25045         1.29865
   S       -1.84890         1.94992         2.19781
   C       -1.09494         2.46393         3.69253
   C       -1.17312         1.61722         4.82899
   C       -0.63390         1.90469         6.03637
   C       -0.51641         1.02073         7.14331
   S        0.15768         1.65223         8.61946
   C        0.07076         0.13679         9.39687
   C       -0.44651        -0.82060         8.56791
   O       -0.59259        -2.10050         9.01342
   C       -1.05910        -3.12851         8.29382
   O       -1.14186        -4.20963         8.80292
   C       -1.49611        -2.96309         6.84055
   O       -1.90120        -3.90268         6.21605
   S       -1.43950        -1.38303         6.03928
   C       -0.78302        -0.33175         7.28438
   C        0.51889         5.20871         1.92078
   C        3.69918         4.37368         6.56731
   C        3.45836         3.22229         7.22438
   C        2.97112         2.23910         6.26214
   O        2.58841         1.10849         6.48364
   C        1.97305         1.10288         3.50850
   N        1.47367         0.09258         4.24769
   N        0.82638        -0.79542         3.48367
   C        0.88885        -0.39117         2.24107
   C        1.61598         0.82708         2.15404
   H        1.10298         1.25812        -1.97083
   H        0.61758         0.29434        -0.48877
   H        2.46976         2.73526        -0.60118
   H        5.57427         5.89100         4.64153
   H        0.79766         4.37985         5.20427
   H       -1.34381         3.32708         0.24765
   H       -1.65734         0.66583         4.66573
   H       -0.21890         2.88552         6.21055
   H        0.39740         0.00460        10.40741
   H       -0.06709         6.09996         1.69957
   H        1.24272         5.08168         1.11481
   H        4.03800         5.29957         6.99765
   H        3.55702         3.02208         8.27302
   H        1.58439        -0.02793         5.24555
   H        0.43104        -0.96965         1.46566
*
