# ORCA input file
# SCF done       -174.126529724029          0.000671114318
! CAM-B3LYP def2-SVP def2/J RIJCOSX Grid4 TightSCF
%maxcore 5000
%tddft
    Mode sTDDFT
    Ethresh 5.0
    maxcore 5000
end

%pal
  nprocs 6
  end
* xyz 0 1
   C       -0.40733        -0.84735         5.28888
   C        0.08233         0.35642         5.59394
   C        1.47109         0.69283         5.59772
   S        2.68494        -0.46889         5.20625
   C        3.99640         0.65439         5.43129
   C        5.33823         0.24300         5.31050
   S        6.61478         1.11264         6.11303
   C        7.85313         0.01490         5.58299
   C        9.19863         0.20481         5.90977
   C        9.66506         1.21120         6.71546
   C       11.01238         1.43587         7.00764
   S       12.28198         0.48209         6.30197
   C       13.55246         1.39135         7.07635
   C       14.90194         1.15550         6.77122
   S       16.11189         2.38146         7.03033
   C       17.36498         1.48143         6.23565
   C       18.61081         2.11508         6.06376
   C       19.56856         1.80970         5.14319
   C       20.78812         2.50457         5.01944
   S       21.28277         3.72612         6.15460
   C       22.73580         4.03094         5.32456
   C       22.87574         3.24199         4.20013
   C       23.94247         3.24068         3.27632
   C       23.89742         2.39115         2.20113
   C       24.95183         2.38150         1.25714
   N       25.81243         2.39029         0.50144
   C       22.78552         1.50785         2.01512
   C       22.76523         0.65175         0.89038
   N       22.72749        -0.04256        -0.02025
   C       21.74068         1.49085         2.90989
   C       21.76037         2.35454         4.01615
   C       16.88477         0.21331         5.85755
   C       17.62914        -0.85355         5.33082
   C       17.01377        -2.05343         5.05374
   C       17.76994        -3.12834         4.53103
   N       18.40423        -3.98205         4.10577
   C       15.62668        -2.22783         5.32283
   C       15.00788        -3.47158         5.05932
   N       14.48171        -4.46823         4.85434
   C       14.88913        -1.20348         5.87458
   C       15.49353         0.03098         6.14885
   C       12.99001         2.39147         7.90464
   C       13.66334         3.27431         8.76084
   C       12.95003         4.17898         9.51657
   C       13.63764         5.05917        10.38399
   N       14.21820         5.76382        11.07579
   C       11.52907         4.22928         9.43877
   C       10.81923         5.16770        10.22340
   N       10.23062         5.91686        10.85928
   C       10.84942         3.35235         8.62266
   C       11.56178         2.41916         7.85781
   C        7.28571        -1.00762         4.79437
   C        7.96897        -2.07111         4.18905
   C        7.27521        -2.98396         3.42659
   C        7.95261        -4.06195         2.81083
   N        8.51258        -4.93004         2.31615
   C        5.87067        -2.83771         3.23698
   C        5.17256        -3.76142         2.42458
   N        4.58434        -4.49727         1.77290
   C        5.18503        -1.80295         3.83259
   C        5.86936        -0.88089         4.63946
   C        3.48570         1.91865         5.79263
   C        4.19517         3.11235         5.99464
   C        3.52248         4.26814         6.31938
   C        4.24728         5.46688         6.50825
   N        4.85986         6.42407         6.65388
   C        2.10145         4.26879         6.45595
   C        1.43421         5.46678         6.80314
   N        0.87547         6.42668         7.08311
   C        1.38408         3.11911         6.23320
   C        2.05446         1.93114         5.88688
   H       -1.46402        -1.04260         5.30170
   H        0.23539        -1.66858         5.01656
   H       -0.59190         1.15824         5.86165
   H        9.90944        -0.49548         5.49149
   H        8.94937         1.89234         7.15653
   H       18.77561         2.98402         6.69063
   H       19.39279         1.03196         4.41550
   H       23.41783         4.77160         5.69189
   H       24.77966         3.90719         3.41753
   H       20.91355         0.81632         2.74770
   H       18.69217        -0.75942         5.17960
   H       13.85428        -1.38109         6.11852
   H       14.73640         3.24533         8.85953
   H        9.77154         3.38529         8.58602
   H        9.03535        -2.18059         4.31232
   H        4.12631        -1.70758         3.65408
   H        5.26651         3.14842         5.87950
   H        0.30864         3.13514         6.31854
*
