# ORCA input file
# SCF done       -169.943533700329          0.000930404159
! CAM-B3LYP def2-SVP def2/J RIJCOSX Grid4 TightSCF
%maxcore 5000
%tddft
    Mode sTDDFT
    Ethresh 5.0
    maxcore 5000
end

%pal
  nprocs 6
  end
* xyz 0 1
   C        8.24008       -17.19292        -0.49112
   C        7.58024       -16.26289         0.19035
   C        6.95807       -15.06483        -0.35683
   C        6.41602       -14.12678         0.52517
   C        5.81995       -12.95249         0.08672
   C        5.76060       -12.71027        -1.27119
   C        6.29290       -13.65277        -2.17282
   C        6.88380       -14.81469        -1.73543
   C        6.10671       -13.16310        -3.56506
   O        6.42184       -13.71527        -4.59272
   C        5.44292       -11.84018        -3.40573
   C        5.07331       -10.93123        -4.36734
   C        4.46929        -9.72526        -3.97409
   C        4.12943        -8.73908        -4.98399
   S        5.13433        -8.63986        -6.40214
   C        4.18968        -7.33966        -7.04466
   C        4.63625        -6.68479        -8.27055
   C        5.93435        -6.23692        -8.32965
   C        6.40408        -5.52255        -9.44424
   N        7.67740        -5.07757        -9.47686
   C        8.04647        -4.41354       -10.53949
   C        7.16504        -4.15926       -11.61085
   N        5.92590        -4.57147       -11.60682
   C        5.51379        -5.26563       -10.52420
   C        4.20242        -5.76357       -10.46616
   C        3.75701        -6.47196        -9.37328
   C        2.41878        -7.03584        -9.39276
   S        2.14810        -8.68928        -8.93710
   C        0.44960        -8.56165        -9.29963
   C       -0.42932        -9.67576        -9.17423
   C       -0.07344       -10.89915        -8.74054
   C       -0.94287       -12.05074        -8.67810
   C       -0.46515       -13.23761        -8.11000
   C       -1.23298       -14.39126        -8.04382
   C       -2.51364       -14.36563        -8.56002
   C       -3.00942       -13.17733        -9.13211
   C       -2.25020       -12.03528        -9.19713
   C       -4.39591       -13.40513        -9.61904
   O       -5.13224       -12.60891       -10.15462
   C       -4.67257       -14.82860        -9.29486
   C       -5.80725       -15.57567        -9.53249
   C       -5.81664       -16.90738        -9.13053
   C       -4.71174       -17.46389        -8.50792
   C       -3.56467       -16.71406        -8.26618
   C       -3.54720       -15.39177        -8.66239
   C        0.13437        -7.28775        -9.73290
   C        1.25272        -6.42791        -9.79474
   C        1.12963        -4.98084       -10.15070
   C       -0.29583        -4.51297        -9.87659
   C       -1.27690        -5.40879       -10.62187
   C       -1.26791        -6.83667       -10.05532
   O       -1.83574        -7.76851       -10.96105
   C       -3.22600        -7.65934       -11.12880
   C        3.16122        -7.00633        -6.20032
   C        3.12561        -7.80060        -5.02489
   C        2.06599        -7.61336        -3.98157
   C        0.88806        -6.82217        -4.54334
   C        1.40682        -5.54401        -5.19073
   C        2.16570        -5.90538        -6.47214
   O        2.73477        -4.78942        -7.13653
   C        3.73161        -4.09166        -6.42754
   C        4.26484        -9.48588        -2.61382
   C        4.63801       -10.40544        -1.64278
   C        5.23289       -11.58696        -2.03593
   H        8.67319       -18.04497         0.00408
   H        8.38227       -17.14566        -1.55691
   H        7.48643       -16.36811         1.26463
   H        6.47000       -14.32139         1.58736
   H        5.41623       -12.24744         0.79814
   H        7.27882       -15.51524        -2.45400
   H        5.24833       -11.14013        -5.41235
   H        6.61607        -6.40701        -7.50956
   H        9.07001        -4.06330       -10.56171
   H        7.48939        -3.60589       -12.48227
   H        3.56646        -5.60884       -11.32231
   H       -1.44041        -9.47946        -9.49445
   H        0.94819       -11.05833        -8.41584
   H        0.53995       -13.25210        -7.71253
   H       -0.82817       -15.28876        -7.60047
   H       -2.65986       -11.15131        -9.65947
   H       -6.66137       -15.13053       -10.02032
   H       -6.69259       -17.51381        -9.30668
   H       -4.73999       -18.49996        -8.20304
   H       -2.71143       -17.16128        -7.77870
   H        1.35109        -4.83625       -11.21206
   H        1.85072        -4.40368        -9.56913
   H       -0.41493        -3.47879       -10.20338
   H       -0.49748        -4.55431        -8.80351
   H       -0.99809        -5.46018       -11.67710
   H       -2.28674        -4.99974       -10.55435
   H       -1.85643        -6.85134        -9.11545
   H       -3.53190        -8.53003       -11.70679
   H       -3.50608        -6.75198       -11.67466
   H       -3.74496        -7.66499       -10.16129
   H        2.48257        -7.05279        -3.13786
   H        1.73811        -8.58552        -3.60633
   H        0.19121        -6.58313        -3.73830
   H        0.35667        -7.42070        -5.28653
   H        2.07126        -5.03024        -4.49337
   H        0.58878        -4.86792        -5.44430
   H        1.43208        -6.27515        -7.20151
   H        4.26490        -3.49305        -7.16497
   H        4.43836        -4.77318        -5.94438
   H        3.29901        -3.42492        -5.67316
   H        3.84130        -8.54647        -2.29971
   H        4.47617       -10.18326        -0.59859
*
