# ORCA input file
# SCF done       -168.018438786213          0.000731287128
! CAM-B3LYP def2-SVP def2/J RIJCOSX Grid4 TightSCF
%maxcore 5000
%tddft
    Mode sTDDFT
    Ethresh 5.0
    maxcore 5000
end

%pal
  nprocs 6
  end
* xyz 0 1
   C        3.31437         1.93936        -1.87296
   C        2.81886         2.29135        -0.69170
   C        3.52285         2.95355         0.39698
   C        4.89042         3.22521         0.35100
   C        5.54720         3.86162         1.39058
   O        6.88503         4.16691         1.39895
   C        7.65150         3.83610         0.26800
   C        4.82316         4.23535         2.52797
   C        5.52127         4.92778         3.67396
   C        6.40762         3.95982         4.47077
   N        5.44629         3.41538         5.41008
   C        4.56316         4.49504         5.79230
   C        4.96368         5.27220         7.08250
   C        3.81249         5.57133         7.97504
   C        2.45818         5.68840         7.60132
   C        1.73234         5.99166         8.73144
   C        0.26943         6.23062         8.90387
   C       -0.59727         5.01340         8.43259
   N       -1.60352         5.52844         7.51013
   C       -0.95230         6.68596         6.94516
   C       -1.83447         7.78193         6.35545
   C       -2.18840         7.56159         4.93148
   C       -3.40439         7.19549         4.53551
   C       -3.80007         6.91362         3.16283
   C       -3.22743         7.57872         2.08297
   C       -3.61653         7.29353         0.78145
   O       -3.11763         7.89826        -0.33648
   C       -2.12149         8.87803        -0.17770
   C       -4.58770         6.31897         0.56642
   C       -5.16874         5.65325         1.62800
   C       -4.79359         5.94450         2.93355
   O       -5.30558         5.34173         4.04274
   C       -6.22304         4.28028         3.89432
   C       -6.55026         3.75459         5.29620
   C       -7.67307         2.71369         5.23813
   C       -9.05078         3.31772         4.98854
   C       -5.27392         3.18654         5.93179
   C       -5.35757         3.06229         7.44780
   S       -0.79287         9.29966         6.57897
   C        0.43978         8.44459         7.64582
   N       -0.27825         7.29849         8.07881
   N        2.60537         6.07496         9.76819
   C        3.87972         5.82669         9.34080
   C        5.02809         5.85585        10.20371
   C        5.01311         6.04610        11.52144
   S        5.74713         6.83644         6.51148
   C        4.61018         6.75034         5.05503
   N        4.54222         5.39885         4.65050
   C        3.46944         3.96489         2.58460
   C        2.80021         3.33762         1.54204
   O        1.46265         3.07903         1.56092
   C        0.71385         3.57194         2.65236
   C       -0.77978         3.33700         2.40740
   C       -1.60263         4.00585         3.51618
   C       -1.43796         3.35307         4.88403
   C       -1.20230         3.82463         1.01264
   C       -0.82102         5.26706         0.70340
   H        2.69947         1.45260        -2.61044
   H        4.33649         2.11690        -2.16196
   H        1.77932         2.08738        -0.47599
   H        5.43593         2.92379        -0.52722
   H        7.66708         2.75512         0.09281
   H        8.66201         4.17775         0.48826
   H        7.28642         4.34467        -0.63053
   H        6.11369         5.75665         3.27639
   H        7.23083         4.50924         4.95307
   H        6.82085         3.16560         3.85090
   H        5.86974         2.95373         6.20497
   H        3.56633         4.06268         5.96009
   H        5.73639         4.72728         7.62887
   H        2.05319         5.55886         6.61630
   H        0.07043         6.47161         9.95810
   H       -1.06178         4.48539         9.26303
   H        0.03826         4.31368         7.88321
   H       -2.42534         5.83215         8.02621
   H       -0.24075         6.33427         6.17299
   H       -2.72837         7.91376         6.97045
   H       -1.37780         7.68846         4.22744
   H       -4.17525         7.02842         5.27529
   H       -2.49121         8.33847         2.29033
   H       -1.87909         9.21689        -1.18382
   H       -1.22205         8.46425         0.28964
   H       -2.48116         9.72745         0.41223
   H       -4.88200         6.09824        -0.44699
   H       -5.92111         4.90779         1.42438
   H       -5.78061         3.47586         3.28937
   H       -7.13348         4.63622         3.39549
   H       -6.88310         4.60863         5.89513
   H       -7.70089         2.17839         6.18811
   H       -7.44492         1.98503         4.45644
   H       -9.28846         4.05080         5.75618
   H       -9.81119         2.54033         5.01150
   H       -9.10120         3.80821         4.01988
   H       -4.44717         3.85438         5.68550
   H       -5.05912         2.20904         5.49372
   H       -5.57432         4.02962         7.89592
   H       -4.40920         2.70664         7.84370
   H       -6.13476         2.36413         7.74996
   H        0.70435         9.10070         8.47573
   H        1.33141         8.23392         7.03421
   H        2.35836         6.29440        10.71836
   H        5.97412         5.71730         9.69936
   H        4.10488         6.19185        12.08292
   H        5.92336         6.06179        12.09290
   H        4.97540         7.40473         4.26793
   H        3.63791         7.09961         5.41218
   H        2.94778         4.26619         3.47531
   H        0.89436         4.64768         2.77698
   H        1.02520         3.05696         3.57066
   H       -0.96237         2.25727         2.44372
   H       -2.65681         3.96963         3.23533
   H       -1.32826         5.05888         3.59272
   H       -1.76602         2.31632         4.85687
   H       -2.02375         3.88974         5.62663
   H       -0.40093         3.37412         5.20899
   H       -2.28637         3.71756         0.92808
   H       -0.74158         3.17560         0.26635
   H       -1.19004         5.93691         1.47609
   H       -1.26381         5.56727        -0.24379
   H        0.25791         5.37315         0.62001
*
