# ORCA input file
# SCF done       -196.311007479537          0.000227223787
! CAM-B3LYP def2-SVP def2/J RIJCOSX Grid4 TightSCF
%maxcore 5000
%tddft
    Mode sTDDFT
    Ethresh 5.0
    maxcore 5000
end

%pal
  nprocs 6
  end
* xyz 0 1
   C       -8.36817        -2.53753         3.24317
   C       -8.42784        -2.70545         1.86630
   C       -7.38306        -3.39918         1.15082
   N       -7.46356        -3.54961        -0.17347
   C       -8.49524        -3.06256        -0.82221
   C       -9.53370        -2.36936        -0.10952
   N       -9.48361        -2.20834         1.18441
   C      -10.63818        -1.84718        -0.83353
   N      -11.51066        -1.44064        -1.45326
   C       -8.57040        -3.22769        -2.22504
   N       -8.65527        -3.34787        -3.36157
   C       -6.24778        -3.93867         1.80479
   C       -6.20385        -3.75836         3.20505
   C       -7.26397        -3.06119         3.90766
   N       -7.02418        -3.00349         5.22389
   S       -5.63768        -3.73558         5.53661
   N       -5.25103        -4.17041         4.04266
   C       -5.23687        -4.60565         1.06901
   C       -4.06685        -5.16376         1.57582
   C       -3.28919        -5.73073         0.57968
   C       -3.87196        -5.60946        -0.70607
   S       -5.37430        -4.79254        -0.67370
   C       -3.00687        -6.20220        -1.64643
   C       -1.86992        -6.69861        -0.96359
   C       -2.01755        -6.42122         0.45654
   C       -1.14569        -6.74229         1.45561
   C        0.06784        -7.41758         1.20567
   N        1.05657        -7.96559         1.01315
   C       -1.39803        -6.42145         2.80636
   N       -1.59383        -6.16549         3.90680
   C       -0.94762        -7.28918        -1.80889
   C       -1.36128        -7.25730        -3.13977
   S       -2.93027        -6.48316        -3.32999
   C       -0.67637        -7.74594        -4.27991
   C        0.61925        -8.33420        -4.24593
   C        1.25936        -8.77802        -5.44717
   N        2.48845        -9.31879        -5.39142
   C        3.08838        -9.43697        -4.23963
   C        2.45725        -9.00353        -3.05773
   N        1.26588        -8.47211        -3.07332
   C        0.66617        -8.67888        -6.73236
   C       -0.62584        -8.11084        -6.76551
   C       -1.26853        -7.65436        -5.55929
   N       -2.47520        -7.14281        -5.80860
   S       -2.77392        -7.22659        -7.38430
   N       -1.39772        -7.90982        -7.83527
   C        1.36136        -9.11808        -7.88223
   C        0.89976        -9.09080        -9.19758
   C        1.84262        -9.57904       -10.08493
   C        3.04016        -9.98223        -9.44525
   S        2.98621        -9.76475        -7.74568
   C        3.93486       -10.44782       -10.42811
   C        3.30919       -10.34558       -11.69533
   C        1.97544        -9.79868       -11.51659
   C        1.04752        -9.54231       -12.48320
   C        1.29403        -9.79853       -13.84873
   N        1.48520       -10.00336       -14.96064
   C       -0.22124        -9.00272       -12.18298
   N       -1.25431        -8.56380       -11.94860
   C        4.12232       -10.77513       -12.73059
   C        5.36656       -11.20099       -12.27320
   S        5.52546       -11.06770       -10.52762
   C        6.43786       -11.69223       -13.05980
   C        7.66548       -12.06736       -12.45940
   C        8.77968       -12.56686       -13.23006
   N        9.92547       -12.90701       -12.59896
   C        9.99791       -12.77292       -11.30300
   C        8.88998       -12.27292       -10.53544
   N        7.77036       -11.94094       -11.13442
   C        8.99171       -12.13024        -9.13187
   N        9.10129       -12.02345        -7.99612
   C       11.19881       -13.12712       -10.63285
   N       12.14893       -13.40141       -10.05607
   C        8.69714       -12.70449       -14.60911
   C        7.50158       -12.34239       -15.22114
   C        6.37251       -11.83801       -14.46334
   N        5.33794       -11.55668       -15.25686
   S        5.73292       -11.88516       -16.77547
   N        7.22643       -12.40076       -16.53040
   H       -9.15153        -2.01945         3.76845
   H       -3.83179        -5.13364         2.62419
   H       -0.01116        -7.72930        -1.52077
   H        4.07500        -9.87701        -4.24210
   H        2.93138        -9.09255        -2.09053
   H       -0.07856        -8.72331        -9.44818
   H        3.86541       -10.79234       -13.77411
   H        9.53237       -13.07818       -15.17543
*
