# ORCA input file
# SCF done       -220.657597830070          0.000241027426
! CAM-B3LYP def2-SVP def2/J RIJCOSX Grid4 TightSCF
%maxcore 5000
%tddft
    Mode sTDDFT
    Ethresh 5.0
    maxcore 5000
end

%pal
  nprocs 6
  end
* xyz 0 1
   C       -4.47513        -2.04596        -0.63720
   C       -4.35821        -2.31701        -1.97592
   C       -3.67420        -3.43491        -2.49935
   N       -3.13567        -4.32094        -2.99204
   C       -4.86960        -1.52989        -3.02909
   N       -5.24093        -0.94765        -3.94716
   C       -3.90101        -2.84697         0.43719
   C       -4.16309        -2.20587         1.67454
   C       -3.74483        -2.71714         2.87966
   C       -3.03675        -3.92217         2.86618
   C       -2.78192        -4.55827         1.62705
   C       -3.20248        -4.03934         0.40809
   S       -1.89709        -6.03403         1.84895
   C       -1.87557        -5.79242         3.56132
   C       -2.49977        -4.66157         3.95726
   C       -4.92667        -0.97422         1.43019
   O       -5.29414        -0.17576         2.27281
   C       -5.15106        -0.91259        -0.02529
   C       -5.90550         0.01557        -0.68528
   C       -6.61503         1.13250        -0.19597
   C       -7.37796         1.93490        -1.02423
   C       -8.02554         2.98901        -0.36915
   C       -7.71939         3.01478         1.02004
   S       -6.66944         1.69189         1.45744
   C       -8.25962         3.97918         1.86011
   S       -8.01897         4.12536         3.59393
   C       -6.38147         3.42034         3.93489
   C       -9.16255         4.90149         1.28678
   C       -9.49128         4.84536        -0.09899
   C       -8.91323         3.92628        -0.94895
   S       -9.24296         3.76011        -2.67305
   C       -9.39228         5.47406        -3.26196
   S      -10.70198         6.04262        -0.49188
   C      -10.72950         6.61657         1.16273
   C       -9.85743         5.91976         1.96314
   C      -11.58495         7.66392         1.55848
   C      -11.65194         8.26764         2.82136
   C      -12.66393         9.29024         2.90051
   N      -12.88634         9.95024         4.03869
   C      -12.12524         9.64462         5.06912
   C      -12.38881        10.37119         6.33096
   O      -13.30198        11.16709         6.44854
   C      -11.47277        10.05567         7.43585
   C      -10.49617         9.14543         7.34771
   C      -10.21748         8.35688         6.13471
   O       -9.33034         7.52879         6.09105
   C      -11.09449         8.65789         4.97891
   N      -10.87949         7.98124         3.87046
   C      -13.35786         9.46936         1.69653
   S      -12.75529         8.37560         0.49361
   C      -14.41338        10.37311         1.45811
   C      -14.88974        11.31493         2.33586
   C      -15.97901        12.05398         1.83885
   C      -16.32259        11.68023         0.50253
   S      -15.29741        10.37695        -0.05125
   C      -17.33298        12.30247        -0.20560
   S      -17.88730        11.89984        -1.83174
   C      -16.38033        11.44030        -2.74016
   C      -18.05103        13.31940         0.45943
   C      -17.72693        13.67238         1.79149
   C      -16.71146        13.05381         2.50333
   S      -16.39033        13.60886         4.14286
   C      -16.22531        12.07019         5.11080
   S      -18.76944        14.91706         2.39505
   C      -19.66901        14.93438         0.89120
   C      -19.14918        14.05369        -0.02459
   C      -20.75066        15.84039         0.73934
   C      -21.78960        15.78367        -0.13277
   C      -22.29104        14.74371        -1.01088
   C      -22.22698        13.39171        -0.79909
   C      -22.82662        12.43617        -1.64531
   N      -23.28690        11.62039        -2.30865
   C      -21.64013        12.79404         0.33505
   N      -21.22324        12.25200         1.25685
   C      -23.11582        15.39605        -2.02206
   C      -23.32347        16.74696        -1.63979
   C      -22.57690        17.02299        -0.39999
   O      -22.55567        18.04388         0.24757
   C      -24.10310        17.60821        -2.37412
   C      -24.69397        17.11961        -3.54313
   C      -24.46561        15.77523        -3.92477
   C      -23.68473        14.90009        -3.17894
   S      -25.28286        15.39566        -5.40752
   C      -25.91512        17.00323        -5.49933
   C      -25.53468        17.79446        -4.47289
   H       -3.96040        -2.20289         3.80341
   H       -2.98450        -4.56461        -0.50652
   H       -1.38885        -6.52472         4.17573
   H       -2.58606        -4.34834         4.98194
   H       -6.01068        -0.10624        -1.75661
   H       -7.47378         1.75522        -2.08054
   H       -6.10959         3.81524         4.90969
   H       -5.67500         3.76082         3.18593
   H       -6.41894         2.33635         3.96942
   H       -9.13512         5.43918        -4.31631
   H       -8.68684         6.09989        -2.72640
   H      -10.40764         5.83744        -3.13927
   H       -9.73750         6.14068         3.00854
   H      -11.64595        10.60928         8.34888
   H       -9.84765         8.93571         8.18768
   H      -14.43751        11.45827         3.29868
   H      -16.61922        11.60127        -3.78713
   H      -16.13215        10.39687        -2.57400
   H      -15.56521        12.08947        -2.43995
   H      -16.82708        12.21566         6.00317
   H      -15.18947        11.90565         5.39282
   H      -16.61501        11.24250         4.52998
   H      -19.51502        13.95340        -1.03089
   H      -20.72054        16.72858         1.36304
   H      -24.25222        18.62797        -2.05488
   H      -23.53299        13.88633        -3.51117
   H      -26.54276        17.25971        -6.33056
   H      -25.82996        18.82219        -4.36293
*
