# ORCA input file
# SCF done       -228.093682085722          0.000608846917
! CAM-B3LYP def2-SVP def2/J RIJCOSX Grid4 TightSCF
%maxcore 5000
%tddft
    Mode sTDDFT
    Ethresh 5.0
    maxcore 5000
end

%pal
  nprocs 6
  end
* xyz 0 1
   C       -0.03838         0.29247        -1.96992
   C       -1.36402         0.00051        -1.80481
   F       -2.19473         0.07525        -2.85895
   C       -1.90176        -0.37917        -0.56713
   C       -1.07315        -0.46188         0.51700
   C        0.30228        -0.17234         0.40359
   C        0.82941         0.21457        -0.86360
   C        2.20422         0.51827        -1.00101
   C        3.02080         0.43406         0.09362
   C        2.49295         0.02629         1.35298
   C        1.16883        -0.26487         1.51533
   C        3.58434        -0.03693         2.33999
   O        3.51596        -0.28960         3.52035
   C        4.83257         0.21554         1.55934
   C        4.44739         0.70523         0.25325
   C        5.19060         1.50460        -0.57603
   C        6.49991         1.93114        -0.28205
   N        7.56052         2.31218        -0.06222
   C        4.69579         2.06877        -1.77109
   N        4.33736         2.55839        -2.74460
   C        6.02640        -0.11794         2.12459
   C        7.27002        -0.35816         1.50314
   C        7.54373        -0.62870         0.16779
   C        8.89040        -0.87350        -0.05265
   C        9.66497        -0.80031         1.12674
   S        8.72106        -0.43890         2.49606
   C       11.01027        -1.08067         0.80054
   C       11.09123        -1.32528        -0.58927
   C        9.76368        -1.19421        -1.16820
   C        9.40211        -1.33974        -2.47484
   C       10.33315        -1.68602        -3.47780
   N       11.08835        -1.98848        -4.28503
   C        8.06269        -1.17110        -2.88571
   N        6.96652        -1.03985        -3.19583
   C       12.37398        -1.64472        -1.00671
   C       13.27843        -1.66269         0.05126
   S       12.51660        -1.25500         1.58390
   C       14.65109        -2.02277         0.03179
   C       15.37904        -2.35292        -1.14067
   C       16.72787        -2.85663        -1.06094
   N       17.37620        -3.20547        -2.17794
   C       16.80181        -3.05790        -3.34599
   C       15.48060        -2.51033        -3.42860
   N       14.81524        -2.19146        -2.34604
   C       14.89112        -2.29784        -4.70189
   N       14.46728        -2.13791        -5.75302
   C       17.50523        -3.43866        -4.51556
   N       18.05339        -3.74245        -5.47387
   C       17.42347        -3.03200         0.15956
   C       16.73162        -2.60798         1.31620
   C       15.37922        -2.11710         1.23980
   N       14.90620        -1.79165         2.44331
   S       16.03725        -2.06095         3.55171
   N       17.17715        -2.61306         2.57329
   C       18.70410        -3.63532         0.19393
   C       19.45410        -3.91623         1.33259
   C       20.62885        -4.58224         1.02540
   C       20.78784        -4.80517        -0.36204
   S       19.48284        -4.18626        -1.28004
   C       21.99283        -5.51665        -0.55971
   C       22.58955        -5.75278         0.70007
   C       21.76117        -5.15647         1.73206
   C       22.01337        -5.13113         3.07240
   C       23.17415        -5.72710         3.60955
   N       24.11899        -6.22412         4.02812
   C       21.13631        -4.52091         3.99363
   N       20.41702        -4.03476         4.74240
   C       23.77686        -6.46156         0.61396
   C       24.11253        -6.76639        -0.69989
   S       22.90346        -6.17939        -1.83598
   C       25.21167        -7.51200        -1.17679
   C       26.36009        -7.84697        -0.52480
   C       27.15206        -9.00949        -1.02858
   O       27.02931        -9.54939        -2.10291
   C       28.04431        -9.37804         0.08454
   C       28.86877       -10.45985         0.20462
   C       29.60199       -10.63745         1.39909
   C       29.46150        -9.68830         2.45394
   C       30.18380        -9.88045         3.64744
   C       31.00405       -10.96782         3.76766
   C       31.15776       -11.91053         2.74162
   C       30.46328       -11.73985         1.57654
   F       31.69416       -11.15387         4.90625
   C       28.60797        -8.57111         2.29809
   C       27.91688        -8.41554         1.12757
   C       26.99126        -7.37425         0.68897
   C       26.94420        -6.10327         1.19997
   C       26.19410        -5.05662         0.62994
   N       25.60679        -4.17611         0.18484
   C       27.71258        -5.67351         2.30281
   N       28.31897        -5.27264         3.19030
   H        0.34049         0.58442        -2.93682
   H       -2.95551        -0.59783        -0.49764
   H       -1.46400        -0.75278         1.48039
   H        2.58011         0.79630        -1.97290
   H        0.78728        -0.56503         2.47972
   H        5.98555        -0.29744         3.19501
   H        6.78044        -0.69157        -0.58590
   H       12.66707        -1.86614        -2.01609
   H       19.12145        -3.64175         2.31680
   H       24.35346        -6.79164         1.45843
   H       25.10417        -7.94854        -2.16519
   H       28.95710       -11.17458        -0.59976
   H       30.09201        -9.17302         4.45665
   H       31.81886       -12.74885         2.89398
   H       30.56490       -12.45305         0.77249
   H       28.50904        -7.87454         3.11554
*
