# ORCA input file
# SCF done       -205.558284816539          0.000925952818
! CAM-B3LYP def2-SVP def2/J RIJCOSX Grid4 TightSCF
%maxcore 5000
%tddft
    Mode sTDDFT
    Ethresh 5.0
    maxcore 5000
end

%pal
  nprocs 6
  end
* xyz 0 1
   C       -0.53799        -0.63425         0.33383
   C       -0.75772        -1.89390         0.82993
   C        0.19633        -2.93300         0.79625
   N        0.92470        -3.82027         0.79832
   C       -1.93590        -2.33591         1.46787
   N       -2.84815        -2.76908         2.01527
   C        0.71959        -0.16275        -0.23268
   C        0.60004         1.22016        -0.50934
   C        1.62414         1.96439        -1.04235
   C        2.82897         1.30998        -1.31726
   C        2.93961        -0.07458        -1.04277
   C        1.90283        -0.82564        -0.50321
   S        4.51109        -0.68499        -1.46311
   C        4.99193         0.90564        -1.99194
   C        4.02688         1.84699        -1.86232
  Br        6.72108         1.17239        -2.66619
   C       -0.75162         1.68436        -0.14572
   O       -1.17473         2.81151        -0.28787
   C       -1.46823         0.48284         0.34685
   C       -2.80331         0.36598         0.62448
   C       -3.79497         1.35562         0.76795
   C       -3.72562         2.73453         0.92893
   C       -4.97927         3.30812         1.08157
   C       -6.03248         2.36578         1.03218
   S       -5.46821         0.77689         0.82933
   C       -7.25982         3.05788         1.16107
   C       -6.98990         4.43120         1.29900
   C       -5.54977         4.63320         1.26732
   C       -4.88513         5.81551         1.40270
   C       -3.47585         5.90927         1.40822
   N       -2.33520         6.01711         1.43491
   C       -5.56520         7.04119         1.57363
   N       -6.10792         8.04233         1.70660
   C       -8.14264         5.20258         1.42601
   C       -9.29483         4.44000         1.38263
   S       -8.93252         2.72511         1.18469
   C      -10.66125         4.87065         1.45928
   C      -11.69910         3.96771         1.26874
   C      -13.02974         4.34629         1.31254
   C      -13.42450         5.65634         1.55131
   C      -12.38960         6.62081         1.76651
   N      -12.70771         7.90612         2.00209
   C      -11.75191         8.77197         2.20436
   C      -10.40189         8.38253         2.18492
   N      -10.05947         7.14535         1.94790
   C      -11.01936         6.23009         1.72529
   C      -14.81538         6.00720         1.57229
   C      -15.39961         7.22558         1.86280
   C      -16.78919         7.18244         1.77487
   C      -17.27954         5.91493         1.41234
   S      -16.02646         4.78307         1.18507
   C      -18.69422         5.97395         1.35615
   C      -19.09547         7.28587         1.68263
   C      -17.91357         8.08298         1.96498
   C      -17.88253         9.38852         2.35820
   C      -16.67546        10.07281         2.61452
   N      -15.69974        10.63813         2.82068
   C      -19.07142        10.12919         2.52893
   N      -20.04792        10.71684         2.65595
   C      -20.47391         7.44430         1.68780
   C      -21.13980         6.26754         1.37413
   S      -20.01714         4.95498         1.03273
   C      -22.52794         6.03803         1.26387
   C      -23.55557         6.77856         1.76492
   C      -23.63301         7.83249         2.75520
   C      -22.82217         7.99817         3.84837
   C      -23.04437         8.96410         4.85249
   N      -23.18323         9.72655         5.69837
   C      -21.73158         7.16218         4.15589
   N      -20.85183         6.49108         4.46296
   C      -24.90209         8.52335         2.55019
   C      -25.68892         7.77286         1.63999
   C      -24.91436         6.60634         1.17627
   O      -25.27227         5.71757         0.43880
   C      -26.96054         8.14990         1.28148
   C      -27.47255         9.32757         1.83638
   C      -26.66983        10.08007         2.72796
   C      -25.38705         9.69494         3.09813
   S      -27.49265        11.50553         3.28119
   C      -28.88746        11.07562         2.32714
   C      -28.74519         9.92531         1.62651
  Br      -30.39788        12.18612         2.34434
   H        1.49852         3.01778        -1.23765
   H        2.03730        -1.87783        -0.31694
   H        4.15246         2.87782        -2.13900
   H       -3.18497        -0.64189         0.74023
   H       -2.79627         3.27343         0.92222
   H       -8.17503         6.26923         1.54566
   H      -11.46377         2.93155         1.07233
   H      -13.78614         3.59156         1.15207
   H      -12.05657         9.79276         2.38844
   H       -9.59564         9.08078         2.36114
   H      -14.81343         8.08746         2.12165
   H      -20.98216         8.37429         1.86611
   H      -22.83032         5.19811         0.64568
   H      -27.54271         7.55608         0.59455
   H      -24.80707        10.30296         3.77249
   H      -29.50512         9.51399         0.98762
*
