# ORCA input file
# SCF done       -213.188652643233          0.000720514348
! CAM-B3LYP def2-SVP def2/J RIJCOSX Grid4 TightSCF
%maxcore 5000
%tddft
    Mode sTDDFT
    Ethresh 5.0
    maxcore 5000
end

%pal
  nprocs 6
  end
* xyz 0 1
   C       -3.36581        -1.62465         1.29938
   C       -3.09990        -2.48500         0.26526
   C       -2.68766        -3.82423         0.43265
   N       -2.34526        -4.91749         0.50120
   C       -3.17321        -2.14769        -1.10195
   N       -3.20992        -1.93066        -2.22903
   C       -3.28405        -1.94281         2.71850
   C       -3.55663        -0.77394         3.47396
   C       -3.55219        -0.76014         4.84754
   C       -3.27593        -1.95989         5.51037
   C       -3.00568        -3.12406         4.74871
   C       -3.00360        -3.13638         3.36016
   S       -2.68353        -4.49308         5.76758
   C       -2.91127        -3.49941         7.18261
   C       -3.21533        -2.20801         6.90826
  Br       -2.72565        -4.26025         8.88489
   C       -3.80050         0.35334         2.56152
   O       -3.83696         1.52760         2.84071
   C       -3.80541        -0.24492         1.18724
   C       -4.11100         0.44467         0.05834
   C       -4.80893         1.68538         0.06145
   C       -5.81511         2.10755         0.92230
   C       -6.30301         3.35117         0.46037
   C       -5.53731         3.73064        -0.71128
   O       -5.53883         4.71687        -1.41648
   N       -4.67889         2.63105        -0.92052
   C       -3.72944         2.59295        -1.99894
   C       -7.29151         3.78151         1.34607
   N       -7.45477         2.82350         2.29945
   C       -6.59023         1.72430         2.08428
   O       -6.60700         0.71823         2.75691
   C       -8.45175         2.77565         3.33488
   C       -7.94381         5.05489         1.22831
   C       -8.17284         5.96507         2.28103
   C       -8.61850         7.30685         2.01091
   N       -8.64630         8.20801         3.00177
   C       -8.43696         7.81850         4.23153
   C       -8.11265         6.45151         4.51704
   N       -7.92671         5.59180         3.54787
   C       -7.93331         6.02268         5.85656
   N       -7.79941         5.69491         6.94564
   C       -8.50448         8.78044         5.27036
   N       -8.57956         9.54261         6.12179
   C       -8.94828         7.75664         0.70802
   C       -8.75729         6.83822        -0.33595
   C       -8.27110         5.50330        -0.06583
   N       -8.25282         4.75229        -1.16806
   S       -8.72879         5.63041        -2.40930
   N       -9.04228         6.99757        -1.63274
   C       -9.53793         9.05776         0.59236
   C      -10.43372         9.60751         1.50789
   C      -10.77684        10.90730         1.07182
   C      -10.02335        11.17198        -0.13433
   O       -9.94457        12.15680        -0.84344
   N       -9.32401         9.97826        -0.38931
   C       -8.38836         9.88397        -1.47704
   C      -11.71910        11.43449         1.96167
   N      -11.94948        10.47637         2.91989
   C      -11.21985         9.29962         2.68755
   O      -11.31252         8.30493         3.37507
   C      -12.87380        10.58172         4.01586
   C      -12.29352        12.72144         2.06545
   C      -12.38667        13.73693         1.16147
   C      -12.20111        13.84593        -0.26286
   C      -12.35820        12.84719        -1.18965
   C      -12.23678        13.03206        -2.58309
   N      -12.15611        13.12362        -3.72364
   C      -12.79002        11.54867        -0.85959
   N      -13.15404        10.48429        -0.63138
   C      -12.00440        15.25917        -0.56881
   C      -12.29476        16.02590         0.58880
   C      -12.63624        15.11742         1.69453
   O      -13.00269        15.39279         2.81207
   C      -12.22227        17.39854         0.60193
   C      -11.83042        18.04136        -0.57687
   C      -11.52514        17.26468        -1.72125
   C      -11.60938        15.87700        -1.73833
   S      -11.04740        18.26093        -3.05974
   C      -11.26342        19.68884        -2.08128
   C      -11.67173        19.43410        -0.81551
  Br      -10.92870        21.37767        -2.82282
   H       -3.76371         0.14674         5.39123
   H       -2.79093        -4.04785         2.82683
   H       -3.38932        -1.45965         7.65964
   H       -3.87042         0.03656        -0.91462
   H       -3.82830         3.53090        -2.54498
   H       -3.93857         1.76023        -2.67371
   H       -2.71079         2.50003        -1.61864
   H       -9.39769         3.17387         2.96969
   H       -8.13539         3.34476         4.20961
   H       -8.57181         1.72908         3.61663
   H       -8.37630        10.85440        -1.97269
   H       -8.69942         9.11181        -2.18096
   H       -7.38990         9.64837        -1.10482
   H      -13.87423        10.83057         3.65934
   H      -12.54364        11.33186         4.73752
   H      -12.89501         9.60810         4.50538
   H      -12.64258        12.99265         3.05858
   H      -12.45470        17.95906         1.49376
   H      -11.35696        15.32301        -2.62694
   H      -11.85304        20.19521        -0.07880
*
