# ORCA input file
# SCF done       -201.819559951071          0.000330469202
! CAM-B3LYP def2-SVP def2/J RIJCOSX Grid4 TightSCF
%maxcore 5000
%tddft
    Mode sTDDFT
    Ethresh 5.0
    maxcore 5000
end

%pal
  nprocs 6
  end
* xyz 0 1
   C       -9.40677        -4.56995       -10.05178
   O       -8.58493        -5.02665        -9.28083
   C       -9.78165        -5.12829       -11.36488
   C      -10.73286        -4.29041       -11.97421
   C      -11.23579        -4.62340       -13.22114
   C      -10.78185        -5.78631       -13.83436
   C       -9.83830        -6.61152       -13.21842
   C       -9.32830        -6.28194       -11.96933
  Br       -9.24470        -8.18739       -14.07395
  Br      -11.47230        -6.24264       -15.53342
   C      -11.01110        -3.16314       -11.08391
   C      -11.86137        -2.12753       -11.36483
   C      -12.59498        -2.01155       -12.56615
   N      -13.21440        -1.86148       -13.52013
   C      -12.12826        -1.02902       -10.51914
   N      -12.39741        -0.10418        -9.89439
   C      -10.21627        -3.35725        -9.88399
   C      -10.23134        -2.56962        -8.76317
   C       -9.53111        -2.71303        -7.55267
   C       -9.73179        -1.84513        -6.48084
   C       -8.98041        -2.16057        -5.35850
  Cl       -9.16788        -1.32904        -3.87153
   C       -8.16518        -3.27458        -5.54542
   S       -8.36621        -3.94272        -7.13303
   C       -7.28675        -3.93173        -4.63575
   C       -6.41761        -3.42022        -3.68063
  Cl       -6.11165        -1.75208        -3.44632
   C       -5.71208        -4.40194        -2.98313
   C       -6.02240        -5.68080        -3.40451
   S       -7.19104        -5.67047        -4.69184
   C       -5.52513        -6.91289        -2.93857
   C       -5.87119        -8.15701        -3.47673
   C       -5.22903        -9.26321        -2.82453
   N       -5.45612       -10.51430        -3.23342
   C       -6.28451       -10.67327        -4.24219
   C       -6.51920       -12.07006        -4.69433
   O       -6.00550       -13.02364        -4.15080
   C       -7.41960       -12.20750        -5.85214
   C       -8.02868       -11.17497        -6.44376
   C       -7.87734        -9.77424        -6.00918
   O       -8.48564        -8.86402        -6.52836
   C       -6.93108        -9.56780        -4.88244
   N       -6.71551        -8.33082        -4.49244
   C       -4.39675        -8.85776        -1.77144
   S       -4.41593        -7.12424        -1.62633
   C       -3.65785        -9.69492        -0.91278
   C       -3.59480       -11.07654        -0.96863
   C       -2.80271       -11.61356         0.04066
  Cl       -2.54531       -13.29514         0.21437
   C       -2.23428       -10.66892         0.89641
   S       -2.70719        -9.06795         0.40356
   C       -1.40248       -10.89642         2.01406
   C       -0.79686        -9.95738         2.84852
  Cl       -0.96464        -8.26933         2.62019
   C       -0.05545       -10.51117         3.88709
   C       -0.03962       -11.89407         3.86774
   S       -1.00869       -12.49860         2.54941
   C        0.55847       -12.73188         4.83624
   C        0.79291       -14.07205         4.78818
   C        0.95031       -14.83414         6.05693
   O        1.15664       -14.38473         7.15808
   C        0.72851       -16.24788         5.67648
   C        0.59655       -16.34560         4.27832
   C        0.79943       -15.02177         3.69444
   C        1.21200       -14.77787         2.41261
   C        1.70090       -13.52348         1.98824
   N        2.15563       -12.53313         1.62952
   C        1.28856       -15.76964         1.41310
   N        1.34942       -16.54428         0.56917
   C        0.34603       -17.57331         3.69098
   C        0.23570       -18.69074         4.51111
   C        0.38279       -18.58920         5.89672
   C        0.63077       -17.35766         6.49006
  Br        0.24044       -20.12655         6.98580
  Br       -0.12437       -20.36679         3.71679
   H      -11.96643        -4.01481       -13.72860
   H       -8.60032        -6.91018       -11.47998
   H      -10.88936        -1.70924        -8.77320
   H      -10.42347        -1.02256        -6.51803
   H       -4.99534        -4.18881        -2.21099
   H       -7.56688       -13.22167        -6.19825
   H       -8.68950       -11.32140        -7.28753
   H       -4.11173       -11.65322        -1.71406
   H        0.47498        -9.92438         4.61439
   H        0.77548       -12.25999         5.78993
   H        0.22332       -17.68274         2.62524
   H        0.74382       -17.27003         7.55949
*
