# ORCA input file
# SCF done       -244.772859673106          0.000488633583
! CAM-B3LYP def2-SVP def2/J RIJCOSX Grid4 TightSCF
%maxcore 5000
%tddft
    Mode sTDDFT
    Ethresh 5.0
    maxcore 5000
end

%pal
  nprocs 6
  end
* xyz 0 1
   C        6.64505        -1.01219         2.95315
   C        6.63623        -2.28310         3.73220
   O        6.27683        -3.36616         3.32618
   C        7.20419        -1.92727         5.04557
   C        7.40178        -0.54674         5.11174
   C        6.90762         0.06619         3.88456
   C        6.49987         1.36478         3.73835
   C        5.71962         1.80127         2.64548
   N        5.02174         2.16663         1.81055
   C        6.71261         2.37557         4.69665
   N        6.87607         3.23854         5.43573
   C        7.95759         0.04258         6.25441
   C        8.29734        -0.76242         7.31004
   C        8.09531        -2.16013         7.28327
   C        7.53600        -2.77146         6.12341
   C        7.33738        -4.16693         6.10177
   C        7.67647        -4.92634         7.18746
   C        8.22670        -4.32942         8.33307
   C        8.43265        -2.97797         8.38078
   C        6.53709        -1.02947         1.60279
   C        6.89070        -0.00589         0.68024
   C        6.39420         0.14601        -0.58488
   C        6.93133         1.25053        -1.28272
   C        6.57437         1.71885        -2.56385
   C        5.46664         1.13718        -3.28950
   C        4.24283         0.77367        -2.79842
   C        3.38127         0.25562        -3.78446
   C        3.94024         0.21254        -5.02528
   S        5.55828         0.83308        -5.00280
   C        3.34139        -0.27613        -6.29405
   C        7.31467         2.78664        -3.05714
   C        8.33274         3.43863        -2.31633
   C        8.65056         3.00764        -1.00970
   C        7.94491         1.90576        -0.54021
   S        8.13647         1.18189         1.03149
   C        9.62264         3.68169        -0.17535
   C       10.49770         3.12548         0.71640
   C       11.26102         4.07714         1.42019
   C       10.96812         5.36328         1.08621
   S        9.73683         5.42166        -0.13116
   C       11.55722         6.61805         1.62096
   C        8.91119         4.49873        -3.04990
   C        8.34816         4.68093        -4.28267
   S        7.07528         3.53075        -4.61271
   C        8.70005         5.67667        -5.23658
   C        8.14896         5.91673        -6.47739
   F        7.15471         5.18639        -6.99431
   C        8.72379         7.00425        -7.15334
   F        8.31693         7.39293        -8.36866
   C        9.73383         7.62787        -6.45038
   S        9.96002         6.83257        -4.92180
   C       10.51403         8.75766        -6.83196
   C       10.42877         9.48355        -7.98678
   C       11.35081        10.55465        -8.04879
   C       11.49575        11.50588        -9.08092
   C       10.56903        11.56107       -10.19004
   C        9.21181        11.39185       -10.16070
   C        8.60181        11.55059       -11.41965
   C        9.48212        11.83678       -12.41722
   S       11.10294        11.92785       -11.80858
   C        9.20546        12.07390       -13.85740
   C       12.54293        12.40805        -8.93733
   C       13.38103        12.46121        -7.79478
   C       13.18937        11.55445        -6.72956
   C       12.18924        10.60349        -6.90774
   S       11.76184         9.35999        -5.76262
   C       13.96074        11.61019        -5.50685
   C       14.41281        10.56777        -4.74456
   C       15.08513        10.97892        -3.57808
   C       15.13887        12.33123        -3.42972
   S       14.36264        13.13193        -4.75491
   C       15.75422        13.11923        -2.33055
   C       14.35981        13.47240        -7.91338
   C       14.25558        14.21808        -9.05707
   S       12.96228        13.63906       -10.09005
   C       15.13264        15.26575        -9.44888
   C       14.93700        16.22405       -10.38685
   C       16.09988        16.94064       -10.98441
   O       17.22231        16.98299       -10.53130
   C       15.58741        17.50897       -12.24493
   C       14.21098        17.29198       -12.33083
   C       13.75232        16.64563       -11.10704
   C       12.48120        16.68631       -10.60169
   C       12.18125        16.35045        -9.26284
   N       11.91592        16.15771        -8.16311
   C       11.36024        17.15693       -11.31353
   N       10.41224        17.50600       -11.85859
   C       13.48810        17.71662       -13.45283
   C       14.15777        18.35624       -14.46279
   C       15.54653        18.60667       -14.40117
   C       16.29338        18.17353       -13.26701
   C       17.67954        18.42396       -13.21216
   C       18.30055        19.08078       -14.23851
   C       17.56950        19.51152       -15.35718
   C       16.22387        19.27962       -15.43822
   H        8.12536         1.10665         6.29813
   H        8.73195        -0.32627         8.19798
   H        6.91421        -4.61435         5.21632
   H        7.52240        -5.99493         7.17088
   H        8.48698        -4.94824         9.17907
   H        8.85519        -2.51626         9.26154
   H        6.19899        -1.96404         1.16576
   H        5.64607        -0.50817        -0.99422
   H        3.95446         0.92274        -1.77312
   H        2.37734        -0.07143        -3.57929
   H        3.91108        -1.11663        -6.69013
   H        3.34447         0.51107        -7.04724
   H        2.31651        -0.59629        -6.12275
   H       10.62350         2.06478         0.83823
   H       12.00274         3.81332         2.15304
   H       12.32577         6.38409         2.35367
   H       10.79108         7.22854         2.09851
   H       12.00040         7.20816         0.81914
   H        9.72051         5.11160        -2.69722
   H        9.74816         9.24696        -8.78225
   H        8.66022        11.20790        -9.25647
   H        7.54216        11.45727       -11.57788
   H        9.83266        11.43812       -14.48099
   H        9.41537        13.11091       -14.12057
   H        8.16101        11.86366       -14.07441
   H       14.30437         9.53675        -5.02837
   H       15.51375        10.29149        -2.87064
   H       16.19107        12.45033        -1.59300
   H       15.00769        13.74419        -1.84099
   H       16.53392        13.77550        -2.71651
   H       15.11449        13.66657        -7.17340
   H       16.11804        15.24663        -8.99362
   H       12.42820        17.53354       -13.52558
   H       13.61781        18.68659       -15.33850
   H       18.23073        18.08821       -12.34802
   H       19.36211        19.27354       -14.19513
   H       18.08012        20.02887       -16.15597
   H       15.65905        19.61055       -16.29784
*
