# ORCA input file
# SCF done       -196.125425662975          0.000383695550
! CAM-B3LYP def2-SVP def2/J RIJCOSX Grid4 TightSCF
%maxcore 5000
%tddft
    Mode sTDDFT
    Ethresh 5.0
    maxcore 5000
end

%pal
  nprocs 6
  end
* xyz 0 1
   C       -0.14216         0.83505        -1.37276
   C        0.24393         1.81534        -2.28270
   C       -0.43159         3.14938        -2.25110
   C        1.25600         1.55951        -3.22055
   C        1.66565         2.61349        -4.19910
   C        1.88149         0.31739        -3.23411
   C        1.49605        -0.64628        -2.32483
   C        0.47929        -0.40221        -1.38933
   C        0.28936        -1.60233        -0.58184
   C       -0.71170        -1.77607         0.33935
   C       -1.65985        -0.78420         0.66685
   N       -2.45892        -0.02349         0.98597
   C       -0.98504        -2.95402         1.06607
   N       -1.29783        -3.87017         1.68517
   C        1.29833        -2.56990        -0.98357
   C        2.02307        -2.01048        -2.14829
   O        2.88112        -2.52915        -2.83661
   C        1.54908        -3.72335        -0.28582
   C        2.47113        -4.76221        -0.49455
   C        3.36357        -5.04384        -1.52735
   C        4.09459        -6.19047        -1.29465
   C        3.77439        -6.81342        -0.07840
   S        2.55303        -5.98795         0.77937
   C        4.59446        -7.95099         0.08304
   C        5.43961        -8.06436        -1.02491
   C        5.18035        -6.95437        -2.01588
   C        6.42429        -6.08778        -2.22750
   C        4.67284        -7.50619        -3.35138
   C        6.30545        -9.14113        -0.92880
   C        6.13010        -9.85432         0.24996
   S        4.85808        -9.17891         1.24633
   C        6.89345       -10.98550         0.67179
   C        6.68644       -11.66680         1.86707
   F        5.68668       -11.28364         2.68334
   C        7.46832       -12.74161         2.30215
   F        7.13809       -13.28178         3.49028
   C        8.55171       -13.25277         1.59486
   C        8.77431       -12.59670         0.35584
   C        7.97110       -11.50504        -0.09242
   N        8.44659       -11.13016        -1.28835
   N        9.44314       -11.94039        -1.51521
   N        9.69428       -12.82567        -0.59120
   C       10.22313       -11.85761        -2.71161
   C        9.38673       -14.31415         2.05911
   C       10.52464       -14.79607         1.42534
   C       11.14085       -15.80372         2.14827
   C       10.46927       -16.10402         3.33690
   S        9.07546       -15.13945         3.57215
   C       11.17115       -17.12451         4.01466
   C       12.30283       -17.47271         3.26542
   C       12.37241       -16.66399         1.99225
   C       13.64312       -15.81332         1.92496
   C       12.26133       -17.57717         0.76746
   C       13.04312       -18.48135         3.84812
   C       12.49110       -18.92490         5.04874
   S       11.03401       -18.02835         5.45626
   C       12.95877       -19.89104         5.95779
   C       13.91096       -20.85650         5.79631
   C       14.55079       -21.43446         7.01114
   O       14.17006       -21.31571         8.15423
   C       15.75804       -22.12224         6.51884
   C       15.77957       -22.08324         5.11391
   C       16.84502       -22.64436         4.43290
   C       17.87934       -23.24590         5.14516
   C       17.84490       -23.29385         6.54716
   C       16.77477       -22.72450         7.23053
   C       18.95096       -23.95090         7.30940
   C       19.03043       -23.84430         4.40102
   C       14.56213       -21.42732         4.64162
   C       14.03488       -21.56261         3.38111
   C       12.73634       -21.15310         3.02191
   N       11.67831       -20.86508         2.68091
   C       14.70267       -22.19361         2.31375
   N       15.21096       -22.66549         1.39814
   H       -0.91999         1.05916        -0.66091
   H       -1.18962         3.17916        -1.47336
   H       -0.90693         3.36063        -3.20841
   H        0.29310         3.94084        -2.06199
   H        0.81838         2.91651        -4.81343
   H        2.45430         2.24774        -4.85099
   H        2.02727         3.49973        -3.67837
   H        2.66446         0.09826        -3.94491
   H        0.95903        -3.86368         0.61269
   H        3.45162        -4.40872        -2.38919
   H        6.78742        -5.70843        -1.27507
   H        6.18326        -5.24430        -2.86915
   H        7.21253        -6.67409        -2.69315
   H        3.78718        -8.11806        -3.19600
   H        5.44127        -8.11704        -3.81859
   H        4.41794        -6.68634        -4.01790
   H        7.04596        -9.42293        -1.65305
   H        9.72020       -11.18143        -3.39841
   H       10.31690       -12.84872        -3.15406
   H       11.22051       -11.47808        -2.48380
   H       10.85667       -14.39954         0.48464
   H       13.71630       -15.17101         2.79982
   H       13.62585       -15.18977         1.03474
   H       14.52051       -16.45430         1.88789
   H       11.38134       -18.21029         0.84862
   H       13.13760       -18.21684         0.69762
   H       12.18571       -16.98013        -0.13782
   H       13.97124       -18.86050         3.46014
   H       12.56366       -19.81907         6.96714
   H       16.89415       -22.61370         3.35561
   H       16.73004       -22.74963         8.30907
   H       19.90463       -23.47050         7.09267
   H       19.03987       -24.99968         7.02780
   H       18.76809       -23.89299         8.37884
   H       18.90314       -23.72061         3.32912
   H       19.11458       -24.90816         4.62001
   H       19.96639       -23.37239         4.69866
*
