# ORCA input file
# SCF done       -212.986022302828          0.000724853149
! CAM-B3LYP def2-SVP def2/J RIJCOSX Grid4 TightSCF
%maxcore 5000
%tddft
    Mode sTDDFT
    Ethresh 5.0
    maxcore 5000
end

%pal
  nprocs 6
  end
* xyz 0 1
   C        2.23629         1.49272         0.50965
   C        2.56626         0.66982         1.55805
   N        2.58411        -0.66415         1.50762
   C        2.27305        -1.30798         0.40167
   C        1.90672        -0.57857        -0.76558
   C        1.89315         0.85857        -0.69423
   N        1.53432         1.41202        -1.85492
   S        1.24652         0.24142        -2.91441
   N        1.55756        -1.02323        -1.97011
   C        2.32758        -2.74009         0.43134
   C        2.08902        -3.62260        -0.58411
   C        2.24894        -4.97259        -0.20071
   C        2.10611        -6.12696        -1.00456
   C        1.81414        -6.05903        -2.42105
   C        1.00698        -6.88691        -3.15133
   C        0.96669        -6.56516        -4.52151
   C        1.75061        -5.50348        -4.85334
   S        2.55422        -4.86670        -3.45662
   C        1.95934        -4.88725        -6.18970
   C        2.25837        -7.34920        -0.36148
   C        2.56390        -7.46373         1.01880
   C        2.78013        -6.31030         1.80642
   C        2.58547        -5.08740         1.17443
   S        2.75282        -3.52371         1.92700
   C        3.21152        -6.42674         3.18080
   C        4.12536        -7.30552         3.69795
   C        4.32637        -7.15118         5.08172
   C        3.56506        -6.16499         5.63208
   S        2.58705        -5.38771         4.43126
   C        3.49815        -5.73600         7.05300
   C        2.59032        -8.80668         1.44351
   C        2.38082        -9.71325         0.43526
   S        2.14319        -8.92235        -1.10935
   C        2.32870       -11.13860         0.51385
   C        2.23790       -11.87151         1.71965
   C        2.16900       -13.31263         1.74297
   N        2.05082       -13.93981         2.93341
   C        2.00133       -13.25174         4.02486
   C        2.08090       -11.83971         4.00282
   N        2.19328       -11.19599         2.88883
   F        2.04636       -11.12361         5.12910
   F        1.86746       -13.92363         5.17160
   C        2.22895       -14.09050         0.56312
   C        2.33083       -13.35554        -0.63579
   C        2.35379       -11.91610        -0.66181
   N        2.42383       -11.44629        -1.90798
   S        2.46405       -12.67876        -2.93556
   N        2.39246       -13.87143        -1.86391
   C        2.18933       -15.51745         0.52720
   C        1.92784       -16.39048         1.55331
   C        1.96648       -17.74624         1.17560
   C        1.71258       -18.87604         1.98742
   C        1.25675       -18.75840         3.35413
   C        1.57262       -19.54643         4.42779
   C        0.90840       -19.17260         5.61084
   C        0.06896       -18.11200         5.45140
   S        0.09635       -17.54048         3.81846
   C       -0.78086       -17.43852         6.46682
   C        1.90123       -20.11473         1.38402
   C        2.28663       -20.27169         0.02937
   C        2.47862       -19.14116        -0.79430
   C        2.32833       -17.90158        -0.18731
   S        2.50467       -16.35632        -0.97622
   C        2.81213       -19.28564        -2.19602
   C        2.31114       -20.17822        -3.10205
   C        2.87429       -20.04486        -4.38658
   C        3.80964       -19.05970        -4.46764
   S        4.00354       -18.25724        -2.94335
   C        4.61804       -18.64499        -5.64452
   C        2.43327       -21.63342        -0.32304
   C        2.13331       -22.50104         0.68681
   S        1.66962       -21.66266         2.15327
   C        2.17115       -23.93586         0.64318
   C        1.86840       -24.72618         1.74325
   N        1.88184       -26.06036         1.77498
   C        2.19823       -26.74232         0.70835
   C        2.52712       -26.08931        -0.49435
   C        2.51402       -24.65077        -0.53436
   N        2.83861       -24.18778        -1.74177
   S        3.12969       -25.43552        -2.71351
   N        2.86242       -26.62240        -1.67071
   H        2.23594         2.56639         0.59011
   H        2.84196         1.08109         2.51960
   H        1.79934        -3.29275        -1.56418
   H        0.42948        -7.68089        -2.71500
   H        0.37335        -7.10539        -5.23788
   H        1.34048        -5.38841        -6.93016
   H        3.00323        -4.96789        -6.49258
   H        1.69961        -3.82920        -6.17045
   H        4.67073        -8.00848         3.09417
   H        5.01280        -7.75285         5.65075
   H        2.52027        -5.96490         7.47685
   H        3.65480        -4.66165         7.13857
   H        4.25849        -6.25284         7.63357
   H        2.73231        -9.10698         2.46288
   H        1.72943       -16.04549         2.54845
   H        2.29102       -20.34467         4.38327
   H        1.04833       -19.67553         6.55121
   H       -0.74560       -17.98590         7.40559
   H       -1.81483       -17.38102         6.12833
   H       -0.43022       -16.42089         6.64074
   H        1.53191       -20.88113        -2.86827
   H        2.59263       -20.66093        -5.22235
   H        4.31006       -19.20599        -6.52396
   H        5.67805       -18.82717        -5.46517
   H        4.49169       -17.58077        -5.84103
   H        2.76936       -21.97334        -1.28448
   H        1.59183       -24.25480         2.67742
   H        2.19667       -27.81973         0.78011
*
