# ORCA input file
# SCF done       -271.986932234810          0.000666966099
! CAM-B3LYP def2-SVP def2/J RIJCOSX Grid4 TightSCF
%maxcore 5000
%tddft
    Mode sTDDFT
    Ethresh 5.0
    maxcore 5000
end

%pal
  nprocs 6
  end
* xyz 0 1
   C      -14.85778        -4.42077        -4.49254
   C      -15.83585        -3.81399        -3.75591
   F      -16.80388        -3.11653        -4.36554
   C      -15.84016        -3.91236        -2.35011
   F      -16.81074        -3.30547        -1.65266
   C      -14.86633        -4.61728        -1.70024
   C      -13.84398        -5.25299        -2.43122
   C      -13.83852        -5.15471        -3.85284
   C      -12.82338        -5.78550        -4.60789
   C      -11.84366        -6.49099        -3.96008
   C      -11.85149        -6.57516        -2.54139
   C      -12.82007        -5.98081        -1.78542
   C      -10.68792        -7.36241        -2.08329
   O      -10.42407        -7.62036        -0.92793
   C       -9.92630        -7.69559        -3.30993
   C      -10.69165        -7.23645        -4.45668
   C      -10.44195        -7.51889        -5.77401
   C       -9.39541        -8.33615        -6.25280
   N       -8.59147        -9.00776        -6.72308
   C      -11.24167        -7.05939        -6.84153
   N      -11.84861        -6.71215        -7.75213
   C       -8.64477        -8.16875        -3.39217
   C       -7.80542        -8.69237        -2.38555
   C       -8.08632        -9.20156        -1.13978
   C       -6.94843        -9.64280        -0.43731
   C       -5.75509        -9.50114        -1.19917
   S       -6.08362        -8.80045        -2.75685
   C       -4.50348        -9.85190        -0.72061
   C       -3.28625        -9.63976        -1.51634
   C       -2.21431        -8.92178        -0.99168
   C       -1.08140        -8.70290        -1.74976
   C       -0.98152        -9.19606        -3.04629
   C       -2.05172        -9.91390        -3.56440
   C       -3.19172       -10.13124        -2.81449
   C        0.24388        -8.93375        -3.86579
   C       -4.45769       -10.39628         0.57461
   C       -5.64786       -10.54287         1.33327
   C       -6.89935       -10.17448         0.86720
   C       -8.10586       -10.31476         1.68881
   C       -8.99073        -9.24987         1.85225
   C      -10.11822        -9.39486         2.63401
   C      -10.40122       -10.59870         3.27133
   C       -9.51705       -11.65663         3.10663
   C       -8.38270       -11.51928         2.33031
   C      -11.62754       -10.73521         4.11946
   S       -5.31179       -11.17470         2.92080
   C       -3.60920       -11.29837         2.54608
   C       -3.32376       -10.86253         1.28439
   C       -2.67553       -11.83936         3.51122
   C       -1.49570       -12.46445         3.09936
   C       -0.61442       -12.99348         4.01550
   F        0.49967       -13.57838         3.53172
   C       -0.83128       -12.93156         5.39797
   C       -2.00153       -12.28807         5.80821
   C       -2.89039       -11.77401         4.89282
   F       -3.99602       -11.17170         5.36886
   C        0.07323       -13.49418         6.37560
   C        1.02973       -14.45147         6.21015
   C        1.70364       -14.79653         7.40892
   C        1.24349       -14.03713         8.51350
   S       -0.03314       -12.95204         8.04135
   C        1.77974       -14.13924         9.78715
   C        1.30952       -13.30461        10.89854
   C       -0.04432       -13.22604        11.20875
   C       -0.47942       -12.42491        12.24738
   C        0.41793       -11.67503        12.99588
   C        1.77078       -11.75273        12.67977
   C        2.21430       -12.55711        11.65018
   C       -0.04395       -10.79828        14.11808
   C        2.81313       -15.07849         9.95485
   C        3.26351       -15.84822         8.85108
   C        2.73356       -15.73884         7.57723
   C        3.19301       -16.59218         6.47429
   C        2.27884       -17.33173         5.72733
   C        2.71269       -18.15275         4.70654
   C        4.06478       -18.25778         4.39759
   C        4.97273       -17.52050         5.14618
   C        4.54695       -16.70092         6.17415
   C        4.52152       -19.16378         3.29672
   S        4.49813       -16.98077         9.33003
   C        4.37040       -16.46101        11.00475
   C        3.47296       -15.43558        11.15118
   C        5.17337       -17.01645        12.03546
   C        5.76841       -18.23728        12.07630
   C        6.91362       -18.48255        12.99383
   O        7.26891       -17.78675        13.91645
   C        7.55065       -19.71789        12.48922
   C        8.70356       -20.31919        12.90465
   C        9.13663       -21.49736        12.25570
   C        8.36682       -22.02726        11.17945
   C        8.80841       -23.19964        10.53363
   C        9.95675       -23.81911        10.93952
   C       10.71589       -23.29568        12.00526
   C       10.31585       -22.15915        12.65018
   F       11.83822       -23.92407        12.38189
   F       10.37353       -24.93458        10.32529
   C        7.17331       -21.38697        10.77503
   C        6.76785       -20.25287        11.42578
   C        5.57644       -19.42473        11.26925
   C        4.39687       -19.82665        10.70098
   C        3.18102       -19.13147        10.87699
   N        2.16515       -18.63172        11.06574
   C        4.24545       -21.02403         9.97425
   N        4.08091       -21.97688         9.35571
   H      -14.86990        -4.33694        -5.56802
   H      -14.88376        -4.68280        -0.62360
   H      -12.84367        -5.68716        -5.68107
   H      -12.80352        -6.06334        -0.70926
   H       -8.16440        -8.09961        -4.36184
   H       -9.08317        -9.27414        -0.74939
   H       -2.28403        -8.51316         0.00638
   H       -0.26088        -8.13688        -1.33187
   H       -1.99380       -10.30815        -4.56856
   H       -4.00781       -10.70307        -3.23081
   H        1.14302        -9.03688        -3.26156
   H        0.21887        -7.91551        -4.25511
   H        0.30333        -9.61776        -4.70853
   H       -8.78417        -8.30127         1.38076
   H      -10.79294        -8.55953         2.75140
   H       -9.71848       -12.60244         3.58873
   H       -7.72077       -12.36216         2.19618
   H      -12.51033       -10.41505         3.56832
   H      -11.54296       -10.10584         5.00518
   H      -11.76827       -11.76409         4.44055
   H       -2.33257       -10.85197         0.86887
   H       -1.26807       -12.55863         2.04987
   H       -2.22751       -12.19786         6.85934
   H        1.26091       -14.90972         5.26683
   H       -0.75561       -13.81515        10.64932
   H       -1.53379       -12.38326        12.47927
   H        2.48255       -11.17135        13.24846
   H        3.26594       -12.58922        11.40330
   H       -1.12490       -10.83616        14.22400
   H        0.25294        -9.76570        13.93845
   H        0.40925       -11.11433        15.05701
   H        1.22724       -17.27974         5.96937
   H        1.99252       -18.72519         4.13971
   H        6.02770       -17.58603         4.92165
   H        5.26732       -16.12235         6.73407
   H        3.87160       -19.07271         2.42869
   H        4.48737       -20.20092         3.63122
   H        5.54184       -18.93447         2.99990
   H        3.24699       -14.99580        12.10626
   H        5.39922       -16.35564        12.86696
   H        9.27720       -19.90339        13.71900
   H        8.23674       -23.61552         9.71875
   H       10.90808       -21.77134        13.46416
   H        6.61036       -21.80360         9.95487
*
