# ORCA input file
# SCF done       -180.690145393576          0.000867699373
! CAM-B3LYP def2-SVP def2/J RIJCOSX Grid4 TightSCF
%maxcore 5000
%tddft
    Mode sTDDFT
    Ethresh 5.0
    maxcore 5000
end

%pal
  nprocs 6
  end
* xyz 0 1
   C       -6.86569         1.50860         6.84031
   C       -7.44231         1.57023         8.07770
   F       -7.69455         2.75697         8.64478
   C       -7.77871         0.39055         8.77233
   F       -8.34190         0.48184         9.98447
   C       -7.53544        -0.83499         8.21861
   C       -6.94351        -0.93133         6.94416
   C       -6.60002         0.26020         6.24185
   C       -6.00054         0.18908         4.96377
   C       -5.75326        -1.03675         4.40202
   C       -6.10872        -2.21780         5.10685
   C       -6.68503        -2.18295         6.34397
   C       -5.76461        -3.40138         4.29697
   O       -5.93775        -4.55380         4.63491
   C       -5.18807        -2.87599         3.03621
   C       -5.15548        -1.42189         3.12609
   C       -4.64501        -0.53758         2.21181
   C       -4.64496         0.86402         2.38547
   N       -4.60683         2.00905         2.45652
   C       -4.03240        -0.84894         0.97842
   N       -3.52148        -0.99152        -0.04055
   C       -4.76595        -3.57109         1.93457
   C       -4.72479        -4.94996         1.64590
   C       -5.07755        -6.07722         2.37154
   C       -4.86216        -7.24641         1.65366
   C       -4.33610        -7.04351         0.36126
   S       -4.10805        -5.37092         0.03985
   C       -4.12742        -8.22280        -0.35146
   C       -4.49479        -9.32259         0.39551
   S       -5.09910        -8.92660         1.98410
   C       -4.44796       -10.70200         0.02967
   N       -4.87221       -11.57098         0.93433
   N       -4.89592       -12.84766         0.73503
   C       -4.50131       -13.41400        -0.39548
   C       -4.01643       -12.59352        -1.45356
   C       -3.98611       -11.17797        -1.23071
   N       -3.51388       -10.51633        -2.28310
   S       -3.14464       -11.57495        -3.43617
   N       -3.56652       -12.91958        -2.66154
   C       -4.60218       -14.83569        -0.46649
   C       -4.30786       -15.67132        -1.52285
   C       -4.56439       -17.00129        -1.19317
   C       -5.04415       -17.17628         0.11817
   S       -5.19209       -15.67069         0.94900
   C       -5.28183       -18.50351         0.45630
   C       -5.00312       -19.36533        -0.59128
   S       -4.44976       -18.50624        -2.02033
   C       -5.18909       -20.76525        -0.66084
   C       -5.31326       -21.66071         0.35759
   C       -5.97080       -22.97199         0.09205
   O       -6.21155       -23.45462        -0.98901
   C       -6.31470       -23.50698         1.42544
   C       -7.05225       -24.61080         1.74329
   C       -7.28972       -24.90958         3.10391
   C       -6.75574       -24.05488         4.11189
   C       -7.00443       -24.35346         5.46660
   C       -7.74785       -25.44909         5.80510
   C       -8.27552       -26.29385         4.80760
   C       -8.05104       -26.03167         3.48512
   F       -9.00303       -27.35893         5.16845
   F       -7.98407       -25.73066         7.09258
   C       -5.98762       -22.92378         3.75272
   C       -5.76754       -22.65645         2.42820
   C       -5.01558       -21.58953         1.77194
   C       -4.02706       -20.84510         2.36037
   C       -3.16003       -19.99384         1.64571
   N       -2.41199       -19.31904         1.09622
   C       -3.71007       -20.91069         3.73286
   N       -3.43091       -20.91842         4.84604
   H       -6.61364         2.42103         6.32273
   H       -7.79904        -1.72855         8.76248
   H       -5.75481         1.11081         4.46269
   H       -6.94050        -3.09893         6.85475
   H       -4.39826        -2.96889         1.11208
   H       -5.47083        -6.03091         3.37012
   H       -3.73606        -8.29372        -1.34927
   H       -3.93382       -15.31745        -2.46550
   H       -5.68363       -18.82201         1.40060
   H       -5.33212       -21.17826        -1.65479
   H       -7.45259       -25.24571         0.96772
   H       -6.60510       -23.71914         6.24251
   H       -8.46196       -26.68792         2.73402
   H       -5.60303       -22.28844         4.53467
*
