# ORCA input file
# SCF done       -220.580275482324          0.000421631700
! CAM-B3LYP def2-SVP def2/J RIJCOSX Grid4 TightSCF
%maxcore 5000
%tddft
    Mode sTDDFT
    Ethresh 5.0
    maxcore 5000
end

%pal
  nprocs 6
  end
* xyz 0 1
   C       -3.78974         2.42917        -3.10789
   C       -3.29176         3.41325        -2.30103
   F       -3.32744         4.69250        -2.69836
   C       -2.73623         3.09834        -1.04478
   F       -2.25489         4.08415        -0.27464
   C       -2.68749         1.80294        -0.61186
   C       -3.19413         0.76659        -1.41976
   C       -3.75416         1.08315        -2.69110
   C       -4.26679         0.05980        -3.52090
   C       -4.22449        -1.24064        -3.09096
   C       -3.67251        -1.54444        -1.81762
   C       -3.16419        -0.58047        -0.99606
   C       -3.76204        -2.99777        -1.57431
   O       -3.35074        -3.56857        -0.58454
   C       -4.43878        -3.56375        -2.76111
   C       -4.66637        -2.48749        -3.71115
   C       -5.17143        -2.58491        -4.98325
   C       -5.56207        -3.76633        -5.64831
   N       -5.89471        -4.66919        -6.27673
   C       -5.35734        -1.48211        -5.84408
   N       -5.53949        -0.63413        -6.59645
   C       -4.86141        -4.85271        -2.97001
   C       -4.76882        -6.01252        -2.18480
   C       -4.19166        -6.28901        -0.95187
   C       -4.38382        -7.60417        -0.56286
   C       -5.11057        -8.37834        -1.49307
   S       -5.55193        -7.44820        -2.86734
   C       -5.28730        -9.68668        -1.04881
   C       -4.71134        -9.90897         0.22308
   S       -3.91560        -8.50105         0.86440
   C       -4.98919       -11.21992         0.58132
   C       -5.70720       -11.77657        -0.48391
   N       -5.88005       -10.83549        -1.46495
   C       -6.66700       -10.93863        -2.66256
   C       -6.18876       -13.13216        -0.56418
   C       -6.74074       -13.76452         0.56645
   C       -7.22062       -15.11620         0.52059
   N       -7.76121       -15.66543         1.62697
   C       -7.84695       -14.96949         2.71280
   C       -7.39075       -13.62412         2.74943
   N       -6.86636       -13.05891         1.71417
   F       -7.50146       -12.90279         3.86193
   F       -8.38377       -15.54778         3.78332
   C       -7.15748       -15.91355        -0.64331
   C       -6.55928       -15.29615        -1.76591
   C       -6.09282       -13.92634        -1.72338
   N       -5.52411       -13.56778        -2.87900
   S       -5.58290       -14.79880        -3.90386
   N       -6.32496       -15.85524        -2.95378
   C       -7.66389       -17.24122        -0.66132
   C       -7.65394       -18.12634        -1.72912
   C       -8.25964       -19.33460        -1.41419
   C       -8.74499       -19.38989        -0.09691
   S       -8.42973       -17.92051         0.75857
   C       -9.36202       -20.61206         0.17048
   C       -9.33725       -21.48878        -0.94538
   S       -8.55474       -20.79315        -2.33499
   C       -9.95780       -22.66307        -0.56997
   C      -10.37205       -22.48812         0.76639
   N      -10.00802       -21.22397         1.18417
   C      -10.19266       -20.67885         2.50097
   C      -11.15827       -23.33396         1.57297
   C      -11.42047       -24.66699         1.42949
   C      -12.63515       -25.23470         2.06858
   O      -13.34420       -24.69140         2.88589
   C      -12.81389       -26.56499         1.45131
   C      -13.83885       -27.45270         1.60466
   C      -13.80899       -28.66772         0.88338
   C      -12.71461       -28.93665         0.01109
   C      -12.69410       -30.14781        -0.70889
   C      -13.71010       -31.05093        -0.56715
   C      -14.79117       -30.78447         0.29650
   C      -14.84094       -29.61804         1.00719
   F      -15.77439       -31.68729         0.41505
   F      -13.68755       -32.20245        -1.25136
   C      -11.66325       -28.00029        -0.12234
   C      -11.71003       -26.83390         0.59218
   C      -10.77098       -25.71761         0.68344
   C       -9.44024       -25.77341         0.35281
   C       -8.51560       -24.77750         0.72325
   N       -7.73268       -24.00686         1.05612
   C       -8.83950       -26.86678        -0.30110
   N       -8.31340       -27.72644        -0.85083
   H       -4.21062         2.68730        -4.06714
   H       -2.25956         1.57806         0.35251
   H       -4.68415         0.33588        -4.47525
   H       -2.74824        -0.84314        -0.03525
   H       -5.38731        -5.02569        -3.90172
   H       -3.66533        -5.54665        -0.38047
   H       -4.70359       -11.73275         1.47518
   H       -7.54554       -11.55672        -2.47827
   H       -6.08633       -11.38615        -3.47124
   H       -6.98606        -9.94014        -2.95967
   H       -7.22168       -17.87803        -2.67976
   H      -10.14292       -23.52465        -1.17900
   H       -9.74285       -21.33209         3.25046
   H      -11.25520       -20.55919         2.72474
   H       -9.71223       -19.70309         2.54513
   H      -11.72187       -22.85400         2.36729
   H      -14.66180       -27.23240         2.26742
   H      -11.87216       -30.36920        -1.37166
   H      -15.67548       -29.42893         1.66411
   H      -10.85009       -28.22565        -0.79393
*
