# ORCA input file
# SCF done       -208.257274306167          0.000426285351
! CAM-B3LYP def2-SVP def2/J RIJCOSX Grid4 TightSCF
%maxcore 5000
%tddft
    Mode sTDDFT
    Ethresh 5.0
    maxcore 5000
end

%pal
  nprocs 6
  end
* xyz 0 1
   C      -10.68520         2.74495         1.49604
   C      -11.45024         3.37054         2.43988
   F      -11.79535         4.65599         2.28380
   C      -11.88579         2.67579         3.58579
   F      -12.63713         3.31387         4.49453
   C      -11.54847         1.36475         3.77311
   C      -10.76031         0.69262         2.81898
   C      -10.32045         1.39332         1.65897
   C       -9.52887         0.73941         0.68690
   C       -9.18818        -0.57481         0.86998
   C       -9.63524        -1.26611         2.02785
   C      -10.39815        -0.66256         2.98495
   C       -9.15439        -2.66205         1.98737
   O       -9.34288        -3.49052         2.85622
   C       -8.44483        -2.80433         0.69897
   C       -8.39637        -1.49930         0.06283
   C       -7.68389        -1.14660        -1.05499
   C       -6.82462        -1.98706        -1.79431
   N       -6.08891        -2.58723        -2.44104
   C       -7.67838         0.15205        -1.60620
   N       -7.63418         1.18492        -2.10560
   C       -7.99596        -3.95202         0.09051
   C       -7.92620        -5.27869         0.53866
   C       -8.15448        -5.87010         1.78238
   C       -7.94543        -7.23191         1.76325
   C       -7.55183        -7.71508         0.50337
   S       -7.42462        -6.47834        -0.66236
   C       -7.38658        -9.11457         0.57895
   C       -7.66868        -9.53290         1.88647
   C       -8.03861        -8.36017         2.76286
   C       -9.45881        -8.49642         3.31804
   C       -7.02945        -8.17486         3.90029
   C       -7.54626       -10.90349         2.04442
   C       -7.17422       -11.52411         0.86106
   S       -6.96590       -10.41029        -0.46419
   C       -6.96916       -12.91136         0.61553
   N       -6.62137       -13.26506        -0.61443
   N       -6.42433       -14.49062        -0.97233
   C       -6.55260       -15.52083        -0.14664
   C       -6.91343       -15.28078         1.21219
   C       -7.12894       -13.92135         1.60957
   N       -7.45920       -13.82041         2.89271
   S       -7.49437       -15.29708         3.53569
   N       -7.09297       -16.13120         2.21729
   C       -6.32333       -16.81884        -0.68323
   C       -6.39923       -18.04454        -0.03834
   C       -6.11676       -19.09293        -0.89805
   C       -5.82688       -18.65928        -2.19849
   S       -5.89964       -16.95457        -2.36993
   C       -5.56243       -19.78874        -3.00177
   C       -5.66696       -20.94655        -2.22057
   C       -6.04972       -20.59866        -0.80167
   C       -7.41806       -21.18961        -0.44751
   C       -4.98531       -21.05017         0.20160
   C       -5.40141       -22.09830        -2.93568
   C       -5.13732       -21.84579        -4.27998
   S       -5.16534       -20.12193        -4.62972
   C       -4.79213       -22.81548        -5.24235
   C       -4.79007       -22.72294        -6.60363
   C       -3.94215       -23.64509        -7.40256
   O       -3.39684       -24.65274        -7.01372
   C       -3.86250       -23.02868        -8.74439
   C       -3.10976       -23.40382        -9.81917
   C       -3.17157       -22.63441       -11.00312
   C       -4.01156       -21.48391       -11.04790
   C       -4.06079       -20.71696       -12.22911
   C       -3.31469       -21.07694       -13.31598
   C       -2.48598       -22.21569       -13.27139
   C       -2.41509       -22.97915       -12.14007
   F       -1.76403       -22.54471       -14.35173
   F       -3.36423       -20.34738       -14.43864
   C       -4.78760       -21.12491        -9.92180
   C       -4.71825       -21.89093        -8.79004
   C       -5.41900       -21.79182        -7.51236
   C       -6.62287       -21.16423        -7.31949
   C       -7.41165       -21.35266        -6.16632
   N       -8.09717       -21.53126        -5.26279
   C       -7.24651       -20.35573        -8.28986
   N       -7.78438       -19.68054        -9.04633
   H      -10.35935         3.29161         0.62490
   H      -11.88976         0.84675         4.65571
   H       -9.21794         1.29711        -0.18125
   H      -10.72205        -1.21250         3.85552
   H       -7.65100        -3.83485        -0.93042
   H       -8.46712        -5.29669         2.63511
   H      -10.17011        -8.63872         2.50780
   H       -9.72974        -7.59754         3.86552
   H       -9.51693        -9.35029         3.98812
   H       -6.02264        -8.07556         3.50110
   H       -7.05770        -9.03313         4.56666
   H       -7.27050        -7.27934         4.46695
   H       -7.71306       -11.45657         2.95049
   H       -6.65172       -18.12601         1.00297
   H       -8.16089       -20.88467        -1.18053
   H       -7.73001       -20.84357         0.53455
   H       -7.36414       -22.27510        -0.43879
   H       -4.01654       -20.62968        -0.05839
   H       -4.90722       -22.13435         0.20081
   H       -5.25295       -20.71795         1.20129
   H       -5.42343       -23.09713        -2.53877
   H       -4.39309       -23.74472        -4.84536
   H       -2.47501       -24.27535        -9.76845
   H       -4.69297       -19.84439       -12.28097
   H       -1.77560       -23.84771       -12.12222
   H       -5.41044       -20.24619        -9.97725
*
