# ORCA input file
# SCF done       -171.861103804324          0.000594417831
! CAM-B3LYP def2-SVP def2/J RIJCOSX Grid4 TightSCF
%maxcore 5000
%tddft
    Mode sTDDFT
    Ethresh 5.0
    maxcore 5000
end

%pal
  nprocs 6
  end
* xyz 0 1
   C       -5.88983         3.16545        -4.03381
   C       -4.80269         3.81669        -4.55347
   C       -4.73702         4.29638        -5.87657
   N       -4.64730         4.71750        -6.94073
   C       -3.59413         3.97452        -3.84336
   N       -2.58071         4.05942        -3.31097
   C       -7.02793         2.67000        -4.79892
   C       -7.63543         1.60834        -4.06526
   C       -8.69547         0.90795        -4.56445
   C       -9.21060         1.24990        -5.83506
   C       -8.62007         2.32276        -6.56387
   C       -7.51845         3.02703        -6.02560
   C       -9.14814         2.65593        -7.82773
   C      -10.20440         1.96105        -8.35081
   C      -10.78337         0.90332        -7.63377
   C      -10.29726         0.55573        -6.40276
   C       -6.94460         1.44774        -2.77317
   O       -7.14523         0.62092        -1.91366
   C       -5.97031         2.57582        -2.71261
   C       -5.42828         2.92779        -1.51962
   C       -4.81712         4.14604        -1.12483
   C       -3.98956         4.29975        -0.03176
   C       -3.58063         5.62326         0.12863
   C       -4.12605         6.50639        -0.80610
   S       -5.14094         5.68151        -1.92419
   C       -3.72773         7.83965        -0.62271
   C       -2.87635         7.96079         0.43965
   S       -2.55247         6.45087         1.23883
   C       -2.26721         9.24070         0.92708
   C       -1.16741         8.99605         1.96831
   N       -1.59217         9.85918        -0.22992
   N       -1.66633        11.00668        -0.57464
   C       -2.45834        12.07387         0.08137
   C       -3.41805        11.49517         1.05366
   C       -3.32311        10.13486         1.46520
   N       -4.29994         9.90114         2.29390
   O       -4.97735        11.05117         2.40835
   N       -4.44685        12.02157         1.65375
   C       -1.43026        12.96193         0.79712
   C       -3.17879        12.80977        -1.00605
   C       -2.95360        14.07167        -1.47052
   C       -3.84702        14.40608        -2.50051
   C       -4.75095        13.38781        -2.82671
   S       -4.48160        11.99331        -1.83882
   C       -5.65109        13.71650        -3.83636
   C       -5.44542        15.00306        -4.30277
   S       -4.11039        15.80192        -3.46010
   C       -6.09268        15.79288        -5.27777
   C       -7.11109        15.52244        -6.14688
   C       -7.64555        16.50542        -7.08114
   C       -7.40946        17.85553        -7.09010
   C       -7.97162        18.74818        -8.02814
   N       -8.38518        19.53204        -8.75805
   C       -6.61764        18.57598        -6.17023
   N       -6.01436        19.25031        -5.46212
   C       -8.54768        15.81191        -7.99217
   C       -8.64703        14.45368        -7.58079
   C       -7.79467        14.22961        -6.40127
   O       -7.69204        13.18556        -5.79025
   C       -9.43455        13.55375        -8.23937
   C      -10.17041        13.97932        -9.36752
   C      -10.07209        15.33623        -9.79062
   C       -9.25043        16.24514        -9.08578
   C      -10.80805        15.75066       -10.91950
   C      -11.60353        14.86872       -11.59877
   C      -11.69938        13.53271       -11.18143
   C      -10.99850        13.09757       -10.08952
   H       -9.13493         0.10017        -3.99829
   H       -7.09247         3.83990        -6.59313
   H       -8.69661         3.46855        -8.37765
   H      -10.59939         2.22191        -9.32127
   H      -11.61604         0.36535        -8.06167
   H      -10.73870        -0.25782        -5.84585
   H       -5.54401         2.19352        -0.72716
   H       -3.67639         3.48117         0.58953
   H       -4.03943         8.66032        -1.24371
   H       -0.38001         8.39284         1.52406
   H       -1.58907         8.47692         2.82567
   H       -0.74149         9.94124         2.30014
   H       -0.96104        12.40750         1.60790
   H       -1.92813        13.83518         1.20974
   H       -0.66065        13.26473         0.09275
   H       -2.19969        14.73744        -1.09733
   H       -6.41705        13.06934        -4.22205
   H       -5.67736        16.79263        -5.33543
   H       -9.49340        12.52905        -7.90355
   H       -9.19532        17.26343        -9.43565
   H      -10.73145        16.78050       -11.23616
   H      -12.16350        15.19574       -12.46206
   H      -12.33118        12.85009       -11.72986
   H      -11.06822        12.07008        -9.76355
*
