# ORCA input file
# SCF done       -192.887183231131          0.000922761074
! CAM-B3LYP def2-SVP def2/J RIJCOSX Grid4 TightSCF
%maxcore 5000
%tddft
    Mode sTDDFT
    Ethresh 5.0
    maxcore 5000
end

%pal
  nprocs 6
  end
* xyz 0 1
   C       -2.50747         3.44498         5.33088
   C       -3.67476         4.02958         4.90847
   C       -4.63491         4.58000         5.77896
   N       -5.44389         5.05071         6.44437
   C       -4.08322         4.05324         3.55996
   N       -4.47114         4.05378         2.47885
   C       -2.18050         3.12311         6.71539
   C       -1.20443         2.08377         6.71675
   C       -0.73422         1.54637         7.87966
   C       -1.21950         2.03893         9.11289
   C       -2.18397         3.08753         9.11681
   C       -2.65843         3.62141         7.89628
   C       -2.65599         3.57182        10.35340
   C       -2.20124         3.04516        11.53160
   C       -1.25176         2.01270        11.52718
   C       -0.77180         1.52039        10.34383
   C       -0.83773         1.75801         5.32460
   O       -0.08555         0.89355         4.93298
   C       -1.54452         2.76721         4.49225
   C       -1.17338         2.96698         3.19570
   C       -1.37880         4.10721         2.39000
   C       -1.34779         4.15185         1.00034
   C       -1.56965         5.42357         0.50351
   C       -1.71639         6.37862         1.51507
   S       -1.62063         5.70624         3.08337
   C       -1.92280         7.64387         0.92810
   C       -1.93226         7.50673        -0.46066
   C       -1.71727         6.06464        -0.85670
   C       -2.94651         5.50832        -1.58264
   C       -0.45783         5.89558        -1.70941
   C       -2.15299         8.70849        -1.11920
   C       -2.30640         9.77436        -0.24851
   S       -2.17120         9.26098         1.42998
   C       -2.56341        11.15632        -0.53234
   C       -2.52011        12.09968         0.48756
   C       -2.80600        13.43642         0.27898
   C       -3.17047        13.93507        -0.96542
   C       -3.19679        13.00986        -2.05432
   N       -3.48766        13.44663        -3.29282
   C       -3.50275        12.58731        -4.27682
   C       -3.22951        11.22827        -4.06331
   N       -2.92977        10.77249        -2.87606
   C       -2.89281        11.63020        -1.84076
   C       -3.51031        15.31987        -1.12107
   C       -4.15702        15.94845        -2.17162
   C       -4.35852        17.30226        -1.94167
   C       -3.85321        17.72513        -0.71083
   S       -3.13675        16.44625         0.17648
   C       -4.10966        19.10297        -0.55176
   C       -4.79620        19.56903        -1.68478
   C       -5.00875        18.44979        -2.67711
   C       -6.50051        18.18975        -2.90558
   C       -4.30146        18.74003        -4.00359
   C       -5.11263        20.90923        -1.61445
   C       -4.67461        21.49959        -0.42919
   S       -3.83567        20.32958         0.60089
   C       -4.75265        22.80935         0.06650
   C       -5.42841        23.91571        -0.38614
   C       -5.35521        25.20988         0.26868
   C       -4.41792        25.62242         1.18244
   C       -4.40108        26.90509         1.76788
   N       -4.33204        27.92649         2.28876
   C       -3.31572        24.86892         1.63692
   N       -2.37840        24.34012         2.03987
   C       -6.41664        26.04960        -0.27499
   C       -7.06032        25.33226        -1.32093
   C       -6.43748        24.00357        -1.46447
   O       -6.73451        23.17487        -2.30358
   C       -8.09882        25.86323        -2.02911
   C       -8.55593        27.16204        -1.71112
   C       -7.92080        27.88516        -0.66125
   C       -6.84297        27.30932         0.05076
   C       -8.38740        29.17798        -0.34874
   C       -9.43143        29.73168        -1.03857
   C      -10.05662        29.01837        -2.07185
   C       -9.62756        27.76123        -2.40136
   H       -0.00104         0.75368         7.86176
   H       -3.38196         4.42140         7.92466
   H       -3.38943         4.36487        10.35094
   H       -2.57135         3.42113        12.47375
   H       -0.90256         1.60917        12.46595
   H       -0.04064         0.72512        10.33473
   H       -0.57811         2.17402         2.75249
   H       -1.20874         3.26653         0.40651
   H       -3.82827         5.60003        -0.95303
   H       -2.79677         4.45770        -1.81775
   H       -3.11403         6.05777        -2.50555
   H        0.41042         6.29089        -1.18682
   H       -0.57156         6.42893        -2.64971
   H       -0.28857         4.84271        -1.92060
   H       -2.20905         8.83869        -2.18292
   H       -2.26046        11.77703         1.48535
   H       -2.76193        14.11293         1.12016
   H       -3.73408        12.97703        -5.25915
   H       -3.25093        10.50723        -4.86957
   H       -4.45943        15.41226        -3.05056
   H       -6.99580        17.97310        -1.96169
   H       -6.63353        17.34143        -3.57225
   H       -6.96552        19.06620        -3.34924
   H       -3.24318        18.92714        -3.83589
   H       -4.74089        19.61603        -4.47363
   H       -4.40334        17.88993        -4.67337
   H       -5.64383        21.46735        -2.36283
   H       -4.19753        22.94480         0.98803
   H       -8.56888        25.29821        -2.82050
   H       -6.38778        27.88086         0.84373
   H       -7.90189        29.72352         0.44720
   H       -9.78142        30.72283        -0.79140
   H      -10.87997        29.46964        -2.60528
   H      -10.10532        27.20707        -3.19627
*
