# ORCA input file
# SCF done       -157.541889739145          0.000303326363
! CAM-B3LYP def2-SVP def2/J RIJCOSX Grid4 TightSCF
%maxcore 5000
%tddft
    Mode sTDDFT
    Ethresh 5.0
    maxcore 5000
end

%pal
  nprocs 6
  end
* xyz 0 1
   C       -2.60001         2.21403         2.22939
   C       -3.14942         1.35922         3.16748
   C       -3.31227         0.02136         2.86815
   F       -3.85046        -0.76555         3.82343
   C       -2.93933        -0.53847         1.63765
   C       -2.38987         0.34599         0.70013
   C       -2.23175         1.68033         1.00611
   F       -1.69942         2.49407         0.07230
   C       -3.09686        -1.93923         1.33126
   C       -2.59616        -2.60884         0.22574
   C       -2.92486        -3.95688         0.22431
   C       -3.68796        -4.32622         1.33279
   S       -3.99261        -3.01233         2.38582
   C       -3.96858        -5.70951         1.26356
   C       -3.37973        -6.22822         0.10484
   C       -2.66382        -5.14630        -0.66966
   C       -1.16692        -5.44433        -0.78634
   C       -3.28640        -4.95289        -2.05520
   C       -3.58658        -7.58612        -0.04176
   C       -4.33749        -8.12683         0.99907
   S       -4.79481        -6.90305         2.17555
   C       -4.74073        -9.47403         1.20280
   C       -4.39464       -10.56022         0.36025
   C       -4.82822       -11.91257         0.62005
   N       -4.45330       -12.89017        -0.23128
   C       -3.71835       -12.61224        -1.25748
   C       -3.29301       -11.28985        -1.51065
   N       -3.62766       -10.32070        -0.72368
   F       -2.53285       -10.98877        -2.56778
   F       -3.37978       -13.62307        -2.06324
   C       -5.63797       -12.25245         1.73245
   C       -5.98215       -11.16552         2.56804
   C       -5.54336        -9.81972         2.31394
   N       -5.99078        -8.97355         3.24064
   S       -6.86946        -9.77698         4.31844
   N       -6.72997       -11.23957         3.66821
   C       -6.10372       -13.56211         2.02888
   C       -5.84479       -14.75571         1.36024
   C       -6.49058       -15.83467         1.93289
   C       -7.25595       -15.47971         3.04942
   S       -7.17009       -13.80467         3.40510
   C       -7.88644       -16.64115         3.54924
   C       -7.52863       -17.73556         2.76402
   C       -6.59194       -17.31657         1.65611
   C       -5.22884       -18.00138         1.78828
   C       -7.20046       -17.58635         0.27755
   C       -8.12056       -18.92159         3.18299
   C       -8.93686       -18.74729         4.28508
   S       -8.96190       -17.07036         4.81140
   C       -9.73073       -19.71905         4.99685
   C      -10.62236       -19.30768         5.99526
   C      -11.39094       -20.22742         6.67462
   F      -12.23795       -19.78586         7.62447
   C      -11.32553       -21.58563         6.41335
   C      -10.44771       -22.01406         5.43454
   C       -9.67359       -21.09855         4.74950
   F       -8.83266       -21.59066         3.81438
   H       -2.46061         3.26280         2.43171
   H       -3.45592         1.71761         4.13713
   H       -2.09201        -0.00029        -0.27496
   H       -2.00398        -2.13514        -0.53491
   H       -0.73018        -5.57587         0.20093
   H       -0.65860        -4.62372        -1.28667
   H       -1.01378        -6.35501        -1.35951
   H       -4.34872        -4.73785        -1.96522
   H       -3.16226        -5.85605        -2.64703
   H       -2.80494        -4.12541        -2.57058
   H       -3.22326        -8.18886        -0.85078
   H       -5.21018       -14.79536         0.49678
   H       -4.80131       -17.80631         2.76916
   H       -4.54845       -17.62332         1.02962
   H       -5.33676       -19.07579         1.66202
   H       -8.16867       -17.09869         0.18987
   H       -7.33309       -18.65535         0.13045
   H       -6.54475       -17.20201        -0.49940
   H       -7.96969       -19.86786         2.69987
   H      -10.71669       -18.26064         6.23707
   H      -11.94258       -22.27769         6.96166
   H      -10.35182       -23.06043         5.19200
*
