# ORCA input file
# SCF done       -195.226364139018          0.000434915965
! CAM-B3LYP def2-SVP def2/J RIJCOSX Grid4 TightSCF
%maxcore 5000
%tddft
    Mode sTDDFT
    Ethresh 5.0
    maxcore 5000
end

%pal
  nprocs 6
  end
* xyz 0 1
   C        7.23059        -1.24861       -11.23849
   C        7.97461        -1.45740       -12.36805
   C        9.36842        -1.30330       -12.33652
   C        9.99830        -0.94177       -11.17687
   C        9.26239        -0.71555        -9.99625
   C        9.90679        -0.32701        -8.79899
   C        9.15897        -0.11355        -7.67368
   C        7.74524        -0.29625        -7.70455
   C        7.09713        -0.66114        -8.84870
   C        7.84710        -0.87606       -10.02785
   C        7.19093        -0.04343        -6.35982
   O        6.03027        -0.05648        -6.01639
   C        8.37699         0.16579        -5.48610
   C        9.53430         0.33164        -6.33660
   C       10.66616         1.04195        -6.02630
   C       10.82939         1.73068        -4.80692
   N       10.96733         2.34552        -3.84717
   C       11.73996         1.23578        -6.91526
   N       12.65451         1.39810        -7.59091
   C        8.24990         0.06902        -4.13252
   C        9.24110        -0.20549        -3.16580
   C        9.12135        -0.01986        -1.79790
   C       10.25351        -0.42552        -1.10315
   C       11.25111        -0.97164        -1.92905
   S       10.77508        -0.96489        -3.58253
   C       12.37299        -1.36321        -1.20262
   C       12.23045        -1.12545         0.18246
   S       10.70096        -0.39960         0.58727
   C       13.39388        -1.56285         0.79923
   C       14.23026        -2.03216        -0.22140
   N       13.59178        -1.91436        -1.42916
   C       13.99442        -2.41642        -2.71343
   C       15.56731        -2.53246        -0.04050
   C       16.64447        -2.22714        -0.89925
   C       17.95504        -2.76379        -0.67076
   N       18.95600        -2.46564        -1.51798
   C       18.73637        -1.64555        -2.50581
   C       17.46400        -1.06538        -2.68852
   N       16.45514        -1.36092        -1.91913
   C       18.26519        -3.60187         0.42452
   C       17.20433        -3.85476         1.31867
   C       15.88145        -3.31551         1.08713
   N       15.02458        -3.69042         2.04218
   S       15.79328        -4.59980         3.11201
   N       17.24770        -4.58640         2.43418
   C       19.57401        -4.13136         0.57551
   C       20.03520        -4.96259         1.58290
   C       21.36738        -5.31304         1.40271
   C       21.94039        -4.75379         0.25023
   S       20.80466        -3.76491        -0.61311
   C       23.27113        -5.14411         0.10000
   C       23.71251        -5.99864         1.14522
   S       22.46633        -6.31991         2.32080
   C       25.02675        -6.33210         0.89462
   C       25.38462        -5.68095        -0.30536
   N       24.28668        -4.96212        -0.76594
   C       24.20863        -4.14992        -1.95080
   C       26.56175        -5.69858        -1.06842
   C       27.78390        -6.29182        -0.87140
   C       28.83668        -6.27165        -1.86973
   C       28.72824        -5.88150        -3.18402
   C       29.79151        -5.91783        -4.10913
   N       30.60774        -5.91499        -4.91725
   C       27.55757        -5.42462        -3.81992
   N       26.64528        -5.05425        -4.41521
   C       30.04363        -6.82091        -1.26305
   C       29.72898        -7.23816         0.06005
   C       30.66148        -7.80111         0.88137
   C       31.98178        -7.97444         0.40747
   C       32.98818        -8.54873         1.20796
   C       34.26055        -8.70412         0.72792
   C       34.58145        -8.29254        -0.57397
   C       33.62660        -7.73053        -1.37707
   C       32.30668        -7.55557        -0.91446
   C       31.31721        -6.97603        -1.74210
   C       28.30916        -6.95444         0.34317
   O       27.73206        -7.20693         1.38148
   H        6.15691        -1.36617       -11.25720
   H        7.49332        -1.74241       -13.29166
   H        9.94097        -1.47135       -13.23647
   H       11.07099        -0.81771       -11.14805
   H       10.98025        -0.21672        -8.79755
   H        6.02419        -0.78329        -8.85726
   H        7.23332         0.12791        -3.75531
   H        8.25446         0.42637        -1.34630
   H       13.64161        -1.53328         1.83948
   H       14.68485        -3.24859        -2.58763
   H       14.48287        -1.63754        -3.30089
   H       13.10906        -2.76272        -3.24875
   H       19.56646        -1.43281        -3.16383
   H       17.27810        -0.35278        -3.48041
   H       19.41052        -5.28424         2.39468
   H       25.67779        -6.95253         1.47488
   H       24.45761        -4.72660        -2.84411
   H       24.88735        -3.29660        -1.88319
   H       23.18897        -3.77992        -2.04363
   H       26.47605        -5.14049        -1.99050
   H       30.39568        -8.11038         1.88141
   H       32.73526        -8.86392         2.20986
   H       35.02632        -9.14481         1.34879
   H       35.58965        -8.42300        -0.93796
   H       33.86827        -7.41276        -2.38086
   H       31.59779        -6.66461        -2.73557
*
