# ORCA input file
# SCF done       -167.474321429740          0.000374564603
! CAM-B3LYP def2-SVP def2/J RIJCOSX Grid4 TightSCF
%maxcore 5000
%tddft
    Mode sTDDFT
    Ethresh 5.0
    maxcore 5000
end

%pal
  nprocs 6
  end
* xyz 0 1
   C       -7.43680        -5.32468         5.00708
   N       -7.74712        -5.26559         3.74114
   N       -6.89009        -5.54928         2.79522
   C       -5.64481        -5.91905         3.03894
   C       -5.19196        -6.02044         4.38527
   C       -6.13991        -5.70551         5.41326
   N       -5.61387        -5.83088         6.63178
   S       -4.08540        -6.29716         6.48581
   N       -4.00721        -6.36500         4.88109
   C       -4.81049        -6.19614         1.91366
   C       -3.48694        -6.59069         1.90297
   C       -3.01657        -6.75418         0.60173
   C       -4.00109        -6.47850        -0.37171
   S       -5.49599        -6.02267         0.31270
   C       -3.42867        -6.66175        -1.65412
   C       -2.08305        -7.05325        -1.49212
   C       -1.78307        -7.12475        -0.06918
   C       -0.59709        -7.46215         0.51331
   C        0.54963        -7.80329        -0.23598
   N        1.49312        -8.08146        -0.82459
   C       -0.42990        -7.49206         1.91443
   N       -0.28195        -7.51901         3.05120
   C       -1.42787        -7.24827        -2.70007
   C       -2.25777        -7.00792        -3.78980
   S       -3.87948        -6.53689        -3.29485
   C       -1.94795        -7.08051        -5.17596
   C       -0.68308        -7.43948        -5.70237
   C       -0.43643        -7.45427        -7.11736
   N        0.78585        -7.79480        -7.57435
   C        1.72288        -8.10885        -6.74128
   C        1.47763        -8.09978        -5.34271
   N        0.32096        -7.77545        -4.86513
   F        2.43456        -8.42746        -4.48398
   F        2.91129        -8.43850        -7.23394
   C       -1.41365        -7.12260        -8.08330
   C       -2.68447        -6.78722        -7.56216
   C       -2.93232        -6.77027        -6.14240
   N       -4.19049        -6.42399        -5.86717
   S       -4.98034        -6.15091        -7.23836
   N       -3.77741        -6.45239        -8.25012
   C       -1.12174        -7.11865        -9.47283
   C       -2.00002        -6.79431       -10.50173
   C       -1.39202        -6.86935       -11.74632
   C       -0.03734        -7.25643       -11.67037
   S        0.47893        -7.52729       -10.06467
   C        0.48982        -7.29227       -12.98504
   C       -0.53119        -6.92671       -13.88978
   C       -1.74460        -6.65246       -13.14140
   C       -2.95753        -6.27045       -13.63610
   C       -3.18453        -6.08872       -15.01681
   N       -3.38032        -5.93677       -16.13647
   C       -4.06905        -6.03055       -12.80080
   N       -4.97913        -5.83184       -12.13193
   C       -0.09961        -6.92475       -15.21459
   C        1.23046        -7.28507       -15.31010
   S        1.96883        -7.63387       -13.76226
   C        2.03965        -7.39734       -16.48142
   N        3.29601        -7.77271       -16.31559
   N        4.13583        -7.90995       -17.30799
   C        3.79695        -7.68389       -18.54753
   C        2.48564        -7.27486       -18.87174
   C        1.55518        -7.12265       -17.79195
   N        0.35480        -6.73438       -18.21214
   S        0.39966        -6.57804       -19.81220
   N        1.93163        -6.99151       -20.05071
   H       -8.20878        -5.07172         5.71667
   H       -2.92244        -6.74104         2.80554
   H       -0.40317        -7.54636        -2.81639
   H       -3.02163        -6.52006       -10.31390
   H       -0.69471        -6.67896       -16.07566
   H        4.55715        -7.82263       -19.30004
*
