# ORCA input file
# SCF done       -201.371568649539          0.000341145754
! CAM-B3LYP def2-SVP def2/J RIJCOSX Grid4 TightSCF
%maxcore 5000
%tddft
    Mode sTDDFT
    Ethresh 5.0
    maxcore 5000
end

%pal
  nprocs 6
  end
* xyz 0 1
   C       -3.66166         4.49801        10.07031
   C       -2.65314         5.27165         9.55713
   C       -1.57963         5.77309        10.32278
   N       -0.68506         6.21142        10.89320
   C       -2.50408         5.62044         8.19771
   N       -2.29542         5.91931         7.10873
   C       -3.74379         4.01758        11.44240
   C       -4.79045         3.06613        11.52194
   C       -5.11534         2.41920        12.68998
   C       -4.37916         2.73311        13.83618
   C       -3.34018         3.69108        13.74878
   C       -3.00629         4.33991        12.56570
   S       -2.57355         3.92834        15.28719
   C       -3.62625         2.76703        16.01851
   C       -4.51366         2.22226        15.15789
   C       -5.42956         2.91870        10.20209
   O       -6.31222         2.13331         9.92695
   C       -4.77838         3.92939         9.33066
   C       -5.20609         4.41484         8.12556
   C       -6.25183         3.99342         7.27922
   C       -7.02246         2.84068         7.24253
   C       -7.93583         2.83316         6.19259
   C       -7.89325         4.00577         5.41754
   S       -6.67493         5.08448         5.96945
   C       -8.85869         4.19297         4.41400
   C       -9.70969         3.13166         4.09833
   C       -9.47744         1.78871         4.72078
   O       -8.81959         1.84038         5.98361
   C      -10.67226         3.48267         3.16945
   C      -10.57924         4.81158         2.76194
   S       -9.25716         5.63600         3.54671
   C      -11.43057         5.49704         1.86462
   C      -11.22703         6.86941         1.58557
   C      -12.10824         7.62214         0.73393
   N      -11.87085         8.92016         0.52363
   C      -10.83898         9.50053         1.08940
   C       -9.96100         8.75098         1.93471
   N      -10.18141         7.47524         2.15389
   C       -8.84823         9.37586         2.54930
   N       -7.95934         9.90935         3.03581
   C      -10.60558        10.87840         0.85555
   N      -10.39016        11.99064         0.68831
   C      -13.24017         7.04479         0.11385
   C      -13.42601         5.66143         0.35551
   C      -12.54019         4.90316         1.21397
   N      -12.91490         3.62793         1.30012
   S      -14.22877         3.39699         0.40389
   N      -14.39883         4.89852        -0.13881
   C      -14.12262         7.83754        -0.65957
   C      -15.28178         7.42534        -1.30378
   C      -15.93942         8.46478        -1.95155
   C      -15.28587         9.69617        -1.79194
   S      -13.83506         9.54566        -0.86093
   C      -15.90076        10.85498        -2.29178
   C      -17.06486        10.73024        -3.05486
   C      -17.54402         9.36722        -3.45114
   O      -17.11816         8.31819        -2.58656
   C      -17.59589        11.95187        -3.42590
   C      -16.85360        13.03797        -2.96668
   S      -15.48195        12.50021        -2.02281
   C      -17.09216        14.41938        -3.08437
   C      -17.94067        15.10290        -3.90818
   C      -18.66263        14.75681        -5.10879
   C      -18.28995        13.83038        -6.05203
   C      -18.99756        13.59574        -7.24746
   N      -19.54812        13.34514        -8.22346
   C      -17.11373        13.06114        -5.97393
   N      -16.15751        12.42518        -5.96722
   C      -19.71896        15.74982        -5.28343
   C      -19.50895        16.80352        -4.35697
   C      -18.34118        16.48388        -3.51645
   O      -17.83349        17.16478        -2.65475
   C      -20.32219        17.90925        -4.30222
   C      -21.39891        17.97293        -5.19249
   C      -21.60820        16.90932        -6.10264
   C      -20.77968        15.79433        -6.16610
   S      -23.00274        17.19629        -7.09439
   C      -23.28510        18.70828        -6.30293
   C      -22.38276        18.99134        -5.33851
   H       -5.91559         1.69596        12.71720
   H       -2.21034         5.06555        12.55069
   H       -3.51357         2.56136        17.06526
   H       -5.24503         1.48428        15.43368
   H       -4.69697         5.29955         7.75945
   H       -6.92926         2.04590         7.95851
   H       -8.86925         1.17053         4.03818
   H      -10.42191         1.26861         4.90216
   H      -11.42875         2.82448         2.78449
   H      -15.62478         6.40859        -1.28699
   H      -17.18282         9.14798        -4.47038
   H      -18.63681         9.31779        -3.45855
   H      -18.51347        12.05905        -3.97568
   H      -16.58295        15.04542        -2.35688
   H      -20.13323        18.70072        -3.59380
   H      -20.98123        15.00609        -6.87270
   H      -24.12352        19.30041        -6.61446
   H      -22.39922        19.88532        -4.74181
*
