# ORCA input file
# SCF done       -256.144231752829          0.000411739562
! CAM-B3LYP def2-SVP def2/J RIJCOSX Grid4 TightSCF
%maxcore 5000
%tddft
    Mode sTDDFT
    Ethresh 5.0
    maxcore 5000
end

%pal
  nprocs 6
  end
* xyz 0 1
   C       -3.46143         0.11764        -3.13829
   C       -4.76407         0.32708        -2.75989
   C       -5.76648        -0.66483        -2.80176
   N       -6.63581        -1.41515        -2.81192
   C       -5.31368         1.52191        -2.24938
   N       -5.85238         2.43523        -1.80658
   C       -2.92569        -1.16578        -3.58034
   C       -1.52714        -1.01875        -3.79025
   C       -0.74127        -2.05835        -4.19563
   C       -1.33181        -3.32296        -4.41393
   C       -2.73290        -3.47901        -4.21110
   C       -3.52018        -2.38132        -3.79261
   C       -3.31360        -4.74446        -4.43118
   C       -2.54839        -5.80629        -4.83044
   C       -1.16853        -5.65140        -5.02959
   C       -0.57330        -4.43601        -4.82608
   C       -1.12771         0.36950        -3.50371
   O        0.00340         0.80664        -3.59903
   C       -2.37017         1.07837        -3.12113
   C       -2.54949         2.41404        -2.85785
   C       -1.63586         3.47249        -2.72520
   C       -0.24293         3.52756        -2.72193
   C        0.26878         4.79559        -2.51694
   C       -0.75804         5.75202        -2.35148
   S       -2.32379         5.07249        -2.45361
   C       -0.33009         7.07292        -2.11474
   C        1.06658         7.25844        -2.08042
  Si        1.93973         5.63369        -2.39928
   C        2.98906         5.08848        -0.95714
   C        2.95536         5.74887         0.27453
   C        3.74633         5.33666         1.33045
   C        4.59107         4.24952         1.18214
   C        4.64125         3.57917        -0.02903
   C        3.85177         3.99553        -1.08366
   C        2.87479         5.58035        -4.01134
   C        3.77472         6.59450        -4.35260
   C        4.50571         6.54065        -5.52384
   C        4.35704         5.46627        -6.38543
   C        3.47167         4.44997        -6.06848
   C        2.73994         4.50740        -4.89695
   C        1.38670         8.57558        -1.80014
   C        0.27730         9.40097        -1.62532
   S       -1.21688         8.51979        -1.82681
   C        0.27620        10.77965        -1.29980
   C       -0.93326        11.50493        -1.18727
   C       -0.96889        12.89904        -0.83050
   N       -2.14601        13.52566        -0.73863
   C       -3.25907        12.87347        -0.97458
   C       -3.22340        11.48819        -1.33422
   N       -2.07776        10.85673        -1.42643
   C       -4.42490        10.78558        -1.59802
   N       -5.41405        10.24784        -1.80787
   C       -4.49624        13.55489        -0.86626
   N       -5.51230        14.07705        -0.78476
   C        0.20245        13.64398        -0.55678
   C        1.41745        12.92617        -0.68208
   C        1.45382        11.52678        -1.05027
   N        2.70389        11.06871        -1.10664
   S        3.72458        12.25364        -0.74310
   N        2.64301        13.41337        -0.49148
   C        0.13297        15.00687        -0.17760
   C        1.19252        15.83815         0.18186
   C        0.80771        17.12629         0.51106
   C       -0.58808        17.28395         0.39126
   S       -1.39594        15.84747        -0.10436
   C       -1.07904        18.56783         0.69912
   C       -0.10854        19.51715         1.08623
  Si        1.58961        18.72905         1.08106
   C        2.32384        18.64457         2.79319
   C        1.93712        19.53182         3.80194
   C        2.51502        19.48295         5.05703
   C        3.49347        18.54417         5.33656
   C        3.89197        17.65424         4.35252
   C        3.31509        17.70647         3.09830
   C        2.77247        19.44808        -0.16837
   C        3.42166        20.65847         0.09456
   C        4.30882        21.20788        -0.81072
   C        4.57417        20.55680        -2.00436
   C        3.94617        19.35522        -2.28504
   C        3.05611        18.80964        -1.37880
   C       -0.68174        20.73819         1.39096
   C       -2.06859        20.76030         1.25816
   S       -2.66804        19.20273         0.69791
   C       -3.01439        21.78201         1.44621
   C       -2.89698        22.99966         2.06809
   C       -3.96220        23.98557         2.10192
   C       -5.05686        24.03691         1.27648
   C       -6.05010        25.03507         1.34927
   N       -6.89394        25.81385         1.35995
   C       -5.32290        23.15005         0.21222
   N       -5.59544        22.49343        -0.69009
   C       -3.62037        24.98470         3.10722
   C       -2.32468        24.68352         3.61138
   C       -1.80820        23.46820         2.95688
   O       -0.72119        22.96425         3.16208
   C       -1.72277        25.45360         4.56381
   C       -2.40639        26.58207         5.06944
   C       -3.70802        26.88547         4.57677
   C       -4.30416        26.06947         3.58727
   C       -4.38340        28.01014         5.09221
   C       -3.80206        28.79965         6.04686
   C       -2.51980        28.50058         6.53041
   C       -1.83682        27.41549         6.05180
   H        0.31908        -1.91763        -4.34513
   H       -4.57787        -2.53511        -3.65231
   H       -4.37638        -4.85885        -4.27563
   H       -3.00247        -6.77205        -4.99473
   H       -0.57962        -6.49987        -5.34486
   H        0.48899        -4.31057        -4.97774
   H       -3.57745         2.72975        -2.72355
   H        0.35675         2.64789        -2.86555
   H        2.30049         6.59985         0.39748
   H        3.70512         5.86430         2.27243
   H        5.20932         3.92657         2.00686
   H        5.29922         2.73100        -0.15024
   H        3.90026         3.47188        -2.02756
   H        3.89592         7.43539        -3.68477
   H        5.19418         7.33706        -5.76725
   H        4.92845         5.42252        -7.30106
   H        3.35069         3.61003        -6.73696
   H        2.04985         3.71063        -4.66064
   H        2.38744         8.95603        -1.71021
   H        2.20553        15.48030         0.19342
   H        1.17343        20.26774         3.59733
   H        2.19998        20.17993         5.81979
   H        3.94410        18.50484         6.31752
   H        4.65492        16.91929         4.56546
   H        3.63199        17.01041         2.33467
   H        3.22318        21.16864         1.02611
   H        4.79659        22.14536        -0.58668
   H        5.26860        20.98447        -2.71255
   H        4.15113        18.84274        -3.21385
   H        2.57017        17.87134        -1.60531
   H       -0.12651        21.60277         1.70205
   H       -3.99670        21.53788         1.05748
   H       -0.73659        25.20510         4.92737
   H       -5.29299        26.32244         3.23947
   H       -5.37003        28.23713         4.71567
   H       -4.32749        29.65954         6.43461
   H       -2.07600        29.13388         7.28410
   H       -0.84903        27.17993         6.42058
*
