# ORCA input file
# SCF done       -177.952197010492          0.000461961053
! CAM-B3LYP def2-SVP def2/J RIJCOSX Grid4 TightSCF
%maxcore 5000
%tddft
    Mode sTDDFT
    Ethresh 5.0
    maxcore 5000
end

%pal
  nprocs 6
  end
* xyz 0 1
   C       -7.41107        -1.82618         1.21805
   C       -6.62346        -2.40857         2.21159
   C       -5.20737        -2.61356         2.02678
   N       -4.51090        -3.30008         2.94363
   C       -5.09302        -3.64917         4.05724
   C       -6.47190        -3.30726         4.30851
   N       -7.20106        -2.75537         3.37889
   C       -7.05788        -3.62267         5.56160
   N       -7.49605        -3.88875         6.58535
   C       -4.38112        -4.42197         5.00998
   N       -3.85066        -5.04678         5.80951
   C       -4.55243        -2.16796         0.85567
   C       -5.35003        -1.56470        -0.12314
   C       -6.78243        -1.41774         0.05504
   N       -7.34447        -0.80832        -1.00516
   S       -6.21830        -0.47938        -2.06998
   N       -4.94243        -1.02131        -1.27933
   C       -3.12383        -2.29589         0.74521
   N       -2.35686        -2.08342         1.79355
   C       -1.08687        -2.25776         1.36924
   C       -1.05163        -2.61416        -0.06092
   C        0.34061        -2.81976        -0.50476
   O        0.74283        -3.11212        -1.60832
   C        1.11017        -2.57684         0.72818
   C        0.19739        -2.22787         1.84441
   N        0.90041        -2.01692         2.98471
   C        2.15148        -2.21699         2.65920
   C        2.35426        -2.57781         1.26572
   C       -2.35793        -2.66447        -0.47394
   C       -2.91667        -3.06981        -1.72387
   C       -2.15793        -3.34469        -2.80564
   C       -2.65449        -3.80339        -4.07193
   C       -1.79403        -4.34821        -5.02519
   C       -0.41330        -4.54347        -4.91004
   N        0.71220        -4.75236        -4.84464
   S       -2.59706        -4.86967        -6.45837
   C       -4.12839        -4.37573        -5.82303
   C       -3.99596        -3.81855        -4.54912
   C       -5.09827        -3.22761        -3.91281
   N       -5.97304        -2.67222        -3.41668
   C       -5.37172        -4.59611        -6.47909
   N       -6.48454        -4.58007        -5.76467
   C       -7.48164        -4.87626        -6.62325
   C       -6.96534        -5.10170        -7.98047
   C       -8.06897        -5.41831        -8.90624
   O       -8.01470        -5.66815       -10.08906
   C       -9.25200        -5.35682        -8.02651
   C       -8.84565        -5.02592        -6.64025
   N       -9.92868        -4.95270        -5.82974
   C      -10.95405        -5.20554        -6.60326
   C      -10.60319        -5.46055        -7.99078
   C       -5.60723        -4.90228        -7.91268
   C       -4.61049        -4.87774        -8.92338
   C       -4.82252        -5.24386       -10.21125
   C       -3.85693        -5.17614       -11.26461
   C       -2.55916        -4.60841       -11.17998
   C       -1.67776        -4.56283       -12.32736
   N       -0.45565        -3.99690       -12.22204
   C       -0.07993        -3.49560       -11.07840
   C       -0.94877        -3.54490        -9.93531
   N       -2.13815        -4.08643       -10.01751
   C       -0.57027        -3.00734        -8.67989
   N       -0.30422        -2.58022        -7.65057
   C        1.19571        -2.88325       -10.96239
   N        2.21097        -2.37313       -10.82367
   C       -2.05029        -5.08137       -13.56440
   C       -3.31297        -5.64682       -13.66768
   C       -4.20849        -5.69220       -12.52941
   N       -5.36797        -6.27619       -12.84381
   S       -5.33746        -6.70843       -14.38002
   N       -3.87108        -6.19906       -14.75522
   H       -8.46512        -1.67347         1.37914
   H        2.92843        -2.10935         3.39616
   H        3.30010        -2.78725         0.80693
   H       -3.98937        -3.17964        -1.76533
   H       -1.07951        -3.26338        -2.73826
   H      -11.95117        -5.21391        -6.19865
   H      -11.29646        -5.68110        -8.77796
   H       -3.63502        -4.51400        -8.64081
   H       -5.78974        -5.62776       -10.51259
   H       -1.37412        -5.03392       -14.40086
*
