# ORCA input file
# SCF done       -242.269092450335          0.000696593486
! CAM-B3LYP def2-SVP def2/J RIJCOSX Grid4 TightSCF
%maxcore 5000
%tddft
    Mode sTDDFT
    Ethresh 5.0
    maxcore 5000
end

%pal
  nprocs 6
  end
* xyz 0 1
   C       12.83547        -7.71924        -2.57431
   C       13.37523        -8.33268        -3.82042
   O       13.19006        -9.47073        -4.19334
   C       14.11348        -7.24871        -4.49457
   C       14.15094        -6.12626        -3.66636
   C       13.49828        -6.44112        -2.39977
   C       13.69173        -5.78594        -1.21359
   C       13.25899        -6.28345         0.03406
   N       12.99804        -6.66545         1.08423
   C       14.42377        -4.58856        -1.08121
   N       14.99267        -3.60444        -0.91986
   C       14.77253        -4.94503        -4.09312
   C       15.34646        -4.91550        -5.33693
   C       15.33779        -6.03787        -6.19437
   C       14.70572        -7.24353        -5.77254
   C       14.69760        -8.36074        -6.63234
   C       15.29389        -8.28675        -7.86077
   C       15.91818        -7.10149        -8.28154
   C       15.93997        -6.00179        -7.46844
   C       11.83320        -8.32516        -1.89681
   C       10.94781        -7.76046        -0.91249
   C       10.42645        -8.58804         0.09329
   C        9.58275        -8.05416         1.03362
   C        9.19992        -6.70236         0.96741
   C        9.67719        -5.88614        -0.04876
   C       10.55344        -6.41651        -0.97181
   C        8.28167        -6.43084         2.05230
   C        8.10093        -7.61326         2.78912
   C        8.93694        -8.73289         2.21706
   C        8.06721        -9.92754         1.78663
   C        6.98930        -9.54087         0.78089
   C       10.00046        -9.20420         3.22850
   C       10.91807        -8.08021         3.69435
   C        7.24040        -7.64596         3.86012
   C        6.53411        -6.49040         4.21168
   C        6.73657        -5.31551         3.48356
   C        7.60678        -5.27349         2.41082
   C        5.56771        -6.54125         5.31388
   C        5.83232        -7.26193         6.44619
   C        4.85321        -7.37085         7.46084
   C        4.85469        -8.07796         8.65065
   C        5.97854        -8.90846         9.17879
   C        6.29734        -8.61047        10.65385
   N        7.71789        -8.79930        10.89109
   C        5.69220       -10.40414         8.95228
   N        5.73854       -10.69451         7.52972
   C        3.54103        -7.91691         9.23183
   C        2.96107        -8.46357        10.31593
   C        1.53323        -8.20933        10.66103
   C        0.84645        -7.21526         9.77781
   C        1.43561        -6.67789         8.69385
   C        2.76351        -7.02501         8.35323
   C        3.56987        -6.70587         7.28025
   C        3.34488        -5.93585         6.11532
   C        4.31484        -5.86073         5.16952
   C        1.40994        -7.79403        12.10501
   C        0.74113        -8.50410        13.01150
   C        0.52624        -8.18028        14.41183
   C       -0.19556        -9.09359        15.19200
   C       -0.44381        -8.81907        16.51462
   C        0.02009        -7.62636        17.09332
   C        0.74392        -6.71813        16.33418
   C        0.99031        -7.00147        15.00499
   C       -0.40163        -7.59467        18.47798
   C       -1.12711        -8.76796        18.74996
   C       -1.19693        -9.64856        17.52628
   C       -2.65158        -9.89415        17.08558
   C       -3.41422        -8.60191        16.81832
   C       -0.49581       -10.99802        17.77643
   C        0.95347       -10.84225        18.22079
   C       -1.66417        -8.98580        19.99347
   C       -1.43901        -8.04897        21.01185
   C       -0.72561        -6.87747        20.72623
   C       -0.21669        -6.63846        19.46653
   C       -1.98729        -8.29454        22.32222
   C       -1.48464        -7.93420        23.52366
   C       -2.35605        -7.94562        24.73422
   O       -3.43605        -8.48671        24.82774
   C       -1.64202        -7.12712        25.72970
   C       -0.38786        -6.77307        25.22879
   C       -0.19808        -7.39405        23.92309
   C        1.00568        -7.64089        23.31998
   C        1.16403        -8.48636        22.20183
   N        1.37392        -9.21722        21.34223
   C        2.24299        -7.16195        23.79696
   N        3.27347        -6.78185        24.13080
   C        0.47645        -5.96297        25.97779
   C        0.07018        -5.53306        27.21353
   C       -1.18447        -5.88800        27.75707
   C       -2.07485        -6.70565        27.00222
   C       -3.32662        -7.05625        27.54752
   C       -3.68074        -6.61665        28.79323
   C       -2.80724        -5.81153        29.54165
   C       -1.58747        -5.45386        29.03607
   H       14.78875        -4.07140        -3.46171
   H       15.82433        -4.01085        -5.68450
   H       14.21440        -9.26531        -6.29828
   H       15.28830        -9.14307        -8.51858
   H       16.38223        -7.06504        -9.25616
   H       16.42020        -5.08878        -7.78991
   H       11.64072        -9.35533        -2.18177
   H       10.72660        -9.62487         0.13325
   H        9.37011        -4.85337        -0.11818
   H       10.91268        -5.79950        -1.78361
   H        7.59727       -10.35435         2.67499
   H        8.71270       -10.69291         1.35068
   H        6.32308        -8.79144         1.20255
   H        6.39873       -10.41316         0.50986
   H        7.43539        -9.13253        -0.12346
   H       10.59896        -9.99034         2.76319
   H        9.48770        -9.63831         4.08994
   H       11.46869        -7.65503         2.85909
   H       11.63461        -8.46366         4.41701
   H       10.34377        -7.28751         4.16899
   H        7.07931        -8.55899         4.41434
   H        6.21444        -4.41690         3.77838
   H        7.75283        -4.35571         1.86063
   H        6.78395        -7.75555         6.57272
   H        6.87950        -8.66441         8.60939
   H        5.66476        -9.23373        11.30898
   H        6.06905        -7.56205        10.86585
   H        7.98201        -9.76308        10.71668
   H        7.95254        -8.58083        11.85293
   H        4.72471       -10.66072         9.41919
   H        6.46989       -11.00630         9.43263
   H        5.06476       -10.11367         7.03999
   H        5.50119       -11.66505         7.35568
   H        3.49067        -9.13202        10.97998
   H        1.00710        -9.17278        10.55445
   H       -0.16595        -6.96222        10.05452
   H        0.90026        -5.97992         8.06583
   H        2.39826        -5.43191         5.98294
   H        4.14144        -5.30481         4.25973
   H        1.89299        -6.85934        12.34739
   H        0.28331        -9.43616        12.69717
   H       -0.55456       -10.00932        14.74318
   H        1.10843        -5.80102        16.77247
   H        1.54839        -6.29343        14.41222
   H       -3.16267       -10.46291        17.86507
   H       -2.64408       -10.50397        16.17967
   H       -3.45444        -7.98691        17.71471
   H       -4.43245        -8.82501        16.50792
   H       -2.93194        -8.02706        16.03062
   H       -0.53501       -11.58396        16.85493
   H       -1.05239       -11.54252        18.54200
   H        1.53190       -10.31212        17.46703
   H        1.40167       -11.82176        18.37101
   H        1.01665       -10.29039        19.15477
   H       -2.22223        -9.88382        20.21416
   H       -0.60671        -6.13330        21.50134
   H        0.31902        -5.72452        19.25844
   H       -2.95301        -8.79026        22.35476
   H        1.43785        -5.67274        25.58589
   H        0.72191        -4.90330        27.80187
   H       -3.98910        -7.67513        26.96323
   H       -4.63868        -6.88746        29.21151
   H       -3.10752        -5.47529        30.52309
   H       -0.91361        -4.83445        29.61025
*
