# ORCA input file
# SCF done       -182.405553686337          0.000777105466
! CAM-B3LYP def2-SVP def2/J RIJCOSX Grid4 TightSCF
%maxcore 5000
%tddft
    Mode sTDDFT
    Ethresh 5.0
    maxcore 5000
end

%pal
  nprocs 6
  end
* xyz 0 1
   C        5.49836        -2.33534         1.20552
   C        4.81681        -3.20156         0.19401
   O        3.91642        -3.97792         0.42000
   C        5.44567        -2.84946        -1.08807
   C        6.52106        -1.98814        -0.86124
   C        6.68005        -1.77834         0.57394
   C        7.83783        -1.40812         1.20725
   C        8.01318        -1.45078         2.60408
   N        8.22410        -1.50286         3.73167
   C        8.99844        -0.97410         0.53556
   N        9.96507        -0.59979         0.04241
   C        7.26763        -1.47906        -1.93071
   C        6.92985        -1.85350        -3.20467
   C        5.86099        -2.73862        -3.46922
   C        5.08680        -3.25423        -2.38953
   C        4.01658        -4.13046        -2.65931
   C        3.72801        -4.48678        -3.94828
   C        4.48948        -3.98508        -5.01546
   C        5.53159        -3.12966        -4.78267
   C        4.92417        -2.11360         2.41085
   C        5.22218        -1.06347         3.32236
   C        5.03647        -1.11734         4.77523
   N        5.35335        -0.01927         5.39743
   C        5.74536         0.85346         4.42725
   C        5.68601         0.21366         3.09985
   C        5.98400         1.18206         2.07574
   S        5.84180         0.99329         0.44597
   C        6.30195         2.38055         2.80196
   C        6.13175         2.15467         4.24468
   N        6.39437         3.29988         4.93919
   C        6.65193         4.20774         4.04778
   C        6.58677         3.72058         2.65853
   C        6.89566         4.41154         1.45578
   O        7.52858         3.66095         0.49874
   C        7.74265         4.49903        -0.51219
   C        8.25373         4.79716        -1.89090
   C        7.70810         6.24449        -1.64265
   C        7.26602         5.75205        -0.27768
   C        6.67606         5.74605         1.00819
   C        5.89166         6.79339         1.57721
   C        5.11176         6.67814         2.67461
   C        4.22384         7.66314         3.17928
   C        3.67880         8.86720         2.52810
   N        2.72365         9.44612         3.18849
   C        2.55131         8.70316         4.32691
   C        3.53665         7.61255         4.36805
   C        3.37596         6.83238         5.56149
   S        4.44042         5.73125         6.17097
   C        2.14929         7.32661         6.12979
   C        1.70670         8.53384         5.38914
   N        0.55798         9.02684         5.93098
   C        0.24533         8.21646         6.89501
   C        1.16908         7.08263         7.06307
   C        0.99938         6.05500         8.02867
   C        1.50727         4.79843         8.04679
   C        1.53785         4.04854         9.34857
   O        0.87492         4.31314        10.32514
   C        2.56379         3.01500         9.16332
   C        2.98661         3.01265         7.83060
   C        2.21379         3.99075         7.07640
   C        2.03165         3.98339         5.71702
   C        2.71179         3.13695         4.81894
   N        3.24179         2.51311         4.01262
   C        1.12923         4.83548         5.05133
   N        0.40139         5.50357         4.46591
   C        4.00438         2.15700         7.40061
   C        4.56781         1.29737         8.30783
   C        4.14893         1.25393         9.65576
   C        3.12493         2.13690        10.11139
   C        2.72321         2.09792        11.46192
   C        3.30853         1.21520        12.32771
   C        4.31403         0.34074        11.88489
   C        4.72549         0.35896        10.58015
   H        8.07996        -0.79285        -1.75540
   H        7.49123        -1.46698        -4.04323
   H        3.43759        -4.50966        -1.83211
   H        2.90872        -5.15928        -4.15410
   H        4.24476        -4.28015        -6.02514
   H        6.11920        -2.74233        -5.60258
   H        4.10309        -2.77180         2.67780
   H        4.69890        -1.98227         5.31912
   H        6.96061         5.19344         4.34859
   H        7.75956         4.24768        -2.68931
   H        9.33259         4.72203        -2.00931
   H        6.89728         6.54062        -2.30364
   H        8.47107         7.01891        -1.62141
   H        5.90261         7.72187         1.02122
   H        5.10244         5.74774         3.22653
   H        4.00070         9.26344         1.58091
   H       -0.63307         8.38278         7.49411
   H        0.42396         6.33010         8.90889
   H        4.36519         2.18580         6.38792
   H        5.35158         0.63261         7.97770
   H        1.95076         2.77467        11.79200
   H        3.00017         1.18571        13.36213
   H        4.76203        -0.34753        12.58636
   H        5.49924        -0.31138        10.23582
*
