# ORCA input file
# SCF done       -256.640072019462          0.000410229466
! CAM-B3LYP def2-SVP def2/J RIJCOSX Grid4 TightSCF
%maxcore 5000
%tddft
    Mode sTDDFT
    Ethresh 5.0
    maxcore 5000
end

%pal
  nprocs 6
  end
* xyz 0 1
   C        0.87502         2.59057        -1.98736
   C       -0.40067         2.98338        -2.28259
   F       -1.28664         3.16065        -1.28508
   C       -0.83169         3.21198        -3.59624
   C        0.05426         3.03643        -4.62278
   C        1.38194         2.63170        -4.37585
   C        1.80124         2.40632        -3.03223
   C        3.13054         2.00806        -2.75844
   C        4.00596         1.83684        -3.79609
   C        3.57722         2.04808        -5.13883
   C        2.30336         2.44113        -5.43045
   C        4.69544         1.76057        -6.05980
   O        4.72647         1.89779        -7.26082
   C        5.77605         1.21525        -5.19439
   C        5.41793         1.46930        -3.81565
   C        6.28737         1.60887        -2.76317
   C        7.68806         1.52034        -2.88742
   N        8.83534         1.51096        -2.95316
   C        5.88623         1.94010        -1.45408
   N        5.61275         2.18728        -0.36666
   C        6.82309         0.54044        -5.74254
   C        7.70192        -0.34860        -5.07068
   S        7.14914        -1.30643        -3.72623
   C        8.72711        -1.99462        -3.48305
   C        9.63774        -1.46233        -4.37870
   C        9.04452        -0.59021        -5.31030
   C        9.80702         0.00802        -6.45890
   C        9.59034        -0.89101        -7.67668
   F        8.29988        -1.01614        -8.01513
   F       10.22104        -0.42385        -8.76511
   F       10.04927        -2.13697        -7.47859
   C       11.32465         0.11838        -6.19774
   C       11.67063        -0.16089        -4.74318
   C       11.14605        -1.54530        -4.32363
   O       11.66873        -1.97087        -3.08571
   C       11.47954        -1.09556        -1.99330
   C        8.88548        -3.01286        -2.47578
   C        9.83714        -3.99585        -2.61202
   C        9.96382        -4.99232        -1.62436
   C       10.84809        -6.05513        -1.50701
   C       12.01900        -6.38758        -2.36667
   C       11.60393        -6.71667        -3.81370
   N       12.59463        -7.59947        -4.40117
   C       13.05079        -5.24287        -2.31332
   N       14.27017        -5.61942        -3.01474
   C       10.45889        -6.78642        -0.32380
   C       10.92375        -7.93531         0.19830
   C       10.30838        -8.54832         1.41041
   C        9.20708        -7.74115         2.02745
   C        8.75268        -6.59447         1.48870
   C        9.32175        -6.08851         0.29596
   C        9.03322        -5.00004        -0.50055
   C        8.05185        -3.98567        -0.40220
   C        7.98947        -3.02445        -1.35537
   C       11.37314        -8.81446         2.43679
   C       11.67687       -10.03405         2.88930
   C       12.70407       -10.31546         3.84756
   S       13.76235        -9.06270         4.40270
   C       14.72548       -10.19727         5.31786
   C       14.20982       -11.47594         5.19843
   C       13.06286       -11.54031         4.38593
   C       12.27260       -12.80798         4.19936
   C       10.98062       -12.71099         5.01444
   F       11.22069       -12.50480         6.31688
   F       10.16328       -11.72318         4.62191
   F       10.25790       -13.83980         4.93116
   C       13.01861       -14.07461         4.67076
   C       14.52246       -13.86306         4.75480
   C       14.82891       -12.73440         5.75182
   O       16.19056       -12.61853         6.08589
   C       17.10103       -12.54198         5.00643
   C       15.80683        -9.78496         6.13734
   C       16.54597        -8.64666         6.06312
   C       17.29948        -8.18060         7.26156
   O       17.55932        -8.82307         8.25134
   C       17.59875        -6.75938         6.99534
   C       18.16273        -5.83212         7.82272
   C       18.32868        -4.50699         7.36137
   C       17.89930        -4.16577         6.04531
   C       18.05936        -2.84003         5.59746
   C       18.62486        -1.91386         6.42905
   C       19.05643        -2.23051         7.72438
   C       18.90668        -3.51208         8.17619
   F       18.77913        -0.64782         6.00175
   C       17.32737        -5.14969         5.20537
   C       17.18489        -6.42820         5.67227
   C       16.68044        -7.63867         5.03296
   C       16.61771        -7.85654         3.68036
   C       16.43721        -9.13824         3.12500
   N       16.35169       -10.18128         2.65097
   C       16.80635        -6.85559         2.70830
   N       16.92203        -6.07477         1.87447
   H        1.17318         2.42705        -0.96355
   H       -1.85063         3.52043        -3.76846
   H       -0.25455         3.20610        -5.64327
   H        3.42112         1.83645        -1.73397
   H        2.00014         2.60418        -6.45378
   H        6.94094         0.64847        -6.81514
   H        9.38461         0.98342        -6.71515
   H       11.66604         1.11657        -6.47093
   H       11.85597        -0.59640        -6.83051
   H       11.21887         0.60067        -4.10515
   H       12.75307        -0.13700        -4.61259
   H       11.50691        -2.29904        -5.03789
   H       11.62851        -1.69901        -1.09919
   H       10.47327        -0.67014        -1.97543
   H       12.21094        -0.28168        -2.00567
   H       10.46254        -4.02581        -3.48633
   H       12.50118        -7.28955        -1.97656
   H       11.46718        -5.78011        -4.37559
   H       10.64418        -7.24499        -3.80138
   H       13.49272        -7.12243        -4.38614
   H       12.35731        -7.80299        -5.36625
   H       13.22760        -4.99173        -1.25335
   H       12.64279        -4.35255        -2.79650
   H       14.75782        -6.34495        -2.49715
   H       14.89184        -4.82073        -3.08035
   H       11.75037        -8.47524        -0.24302
   H        9.88986        -9.52043         1.10588
   H        8.78722        -8.14431         2.93600
   H        7.94237        -6.05236         1.95412
   H        7.36414        -3.98618         0.43026
   H        7.25350        -2.23564        -1.28937
   H       11.88673        -7.94099         2.81447
   H       11.13954       -10.88996         2.50440
   H       11.97337       -12.90812         3.15088
   H       12.79460       -14.89675         3.99035
   H       12.65560       -14.35963         5.66124
   H       14.91932       -13.59936         3.77286
   H       15.00281       -14.78128         5.09387
   H       14.34732       -12.96461         6.71399
   H       18.03861       -12.19482         5.43702
   H       16.77451       -11.83588         4.23820
   H       17.26146       -13.52388         4.55090
   H       16.02671       -10.43337         6.97962
   H       18.47902        -6.10566         8.81811
   H       17.74177        -2.56077         4.60504
   H       19.49570        -1.45790         8.33519
   H       19.23073        -3.78042         9.17040
   H       17.00452        -4.86605         4.21582
*
