# ORCA input file
# SCF done       -232.482299293169          0.000530377025
! CAM-B3LYP def2-SVP def2/J RIJCOSX Grid4 TightSCF
%maxcore 5000
%tddft
    Mode sTDDFT
    Ethresh 5.0
    maxcore 5000
end

%pal
  nprocs 6
  end
* xyz 0 1
   C      -10.36207       -14.34385         6.23288
   C       -9.83705       -15.42582         5.54081
   C       -8.79839       -15.26297         4.63562
   C       -8.24872       -14.01146         4.39997
   C       -8.76877       -12.92428         5.08079
   C       -9.83117       -13.08575         5.99918
   C      -10.17764       -11.78143         6.55453
   C      -11.06032       -11.54952         7.57577
   C      -11.78974       -12.56110         8.23469
   N      -12.41369       -13.33351         8.81086
   C      -11.32398       -10.28873         8.15182
   N      -11.57790        -9.30245         8.68222
   C       -9.40106       -10.79650         5.81601
   C       -8.38202       -11.52278         5.07710
   C       -7.15360       -11.02912         4.71756
   C       -6.70377        -9.74949         5.10467
   N       -6.28811        -8.73945         5.45859
   C       -6.18429       -11.76011         4.00635
   N       -5.37279       -12.29243         3.39205
   C       -9.71128        -9.46274         5.74041
   C       -9.34458        -8.53174         4.75399
   S       -8.72537        -8.91924         3.17866
   C       -8.65039        -7.25183         2.70937
   C       -9.17401        -6.43344         3.71462
   C       -9.54243        -7.14440         4.88073
   O      -10.02074        -6.71171         6.04892
   C       -9.63692        -5.46383         6.60768
   C       -9.41718        -4.97026         3.52804
   F       -9.46787        -4.59027         2.24290
   F      -10.59550        -4.58261         4.04731
   F       -8.47809        -4.18572         4.09861
   C       -8.05094        -6.89809         1.47577
   C       -7.51215        -7.81541         0.63315
   C       -6.80452        -7.55328        -0.58207
   C       -6.14367        -8.60247        -1.19335
   C       -5.35523        -8.37888        -2.33423
   C       -4.55585        -9.24147        -3.07433
   C       -4.39008       -10.70428        -2.84511
   C       -4.72694       -11.52667        -4.10483
   N       -5.17845       -12.84240        -3.70252
   C       -2.98021       -11.02305        -2.31215
   N       -2.90082       -12.41099        -1.88409
   C       -3.91892        -8.43993        -4.09394
   C       -3.00234        -8.74298        -5.03226
   C       -2.42875        -7.70724        -5.93226
   C       -3.04142        -6.34404        -5.79289
   C       -3.95854        -6.05725        -4.85358
   C       -4.40696        -7.05767        -3.95655
   C       -5.26831        -7.03055        -2.88208
   C       -6.00040        -5.98451        -2.26936
   C       -6.73385        -6.23836        -1.15894
   C       -2.42433        -8.09844        -7.38412
   C       -3.17961        -9.06700        -7.91029
   C       -3.17349        -9.44046        -9.29767
   S       -4.36540       -10.54605        -9.88479
   C       -3.73486       -10.48982       -11.49568
   C       -2.64367        -9.63252       -11.55677
   C       -2.31149        -9.04902       -10.31518
   O       -1.26954        -8.19069       -10.12200
   C       -0.01158        -8.82187        -9.92165
   C       -1.92586        -9.39458       -12.84378
   F       -2.75696        -8.96432       -13.81582
   F       -0.94101        -8.50329       -12.77398
   F       -1.37258       -10.53260       -13.33045
   C       -4.23558       -11.29665       -12.54806
   C       -5.21782       -12.21912       -12.41796
   C       -5.66140       -13.06465       -13.47306
   C       -4.93495       -13.52690       -14.52901
   C       -5.52407       -14.06460       -15.75704
   C       -6.79056       -14.55195       -15.92372
   C       -7.76301       -14.67472       -14.90752
   N       -8.59957       -14.81449       -14.13397
   C       -7.28620       -15.05622       -17.14640
   N       -7.75102       -15.47991       -18.10599
   C       -4.49295       -13.99271       -16.78208
   C       -3.27127       -13.62373       -16.17465
   C       -2.12632       -13.45134       -16.93534
   C       -2.20494       -13.66062       -18.30368
   C       -3.40018       -14.03784       -18.90077
   C       -4.55443       -14.20564       -18.15083
   C       -3.48557       -13.49415       -14.74183
   C       -2.50526       -13.59595       -13.79476
   C       -1.13207       -13.72769       -14.09970
   N       -0.00593       -13.85019       -14.27985
   C       -2.71867       -13.66422       -12.40249
   N       -2.80748       -13.75346       -11.26154
   H      -11.16939       -14.49068         6.93133
   H      -10.24760       -16.40942         5.71090
   H       -8.41137       -16.12022         4.10617
   H       -7.44386       -13.89200         3.69248
   H      -10.38837        -9.05571         6.48041
   H       -9.69852        -5.60766         7.68603
   H      -10.32309        -4.66704         6.31697
   H       -8.61416        -5.20078         6.33431
   H       -7.98163        -5.84886         1.24256
   H       -7.57336        -8.85975         0.91935
   H       -6.20833        -9.59439        -0.76942
   H       -5.10835       -11.01745        -2.08120
   H       -3.85023       -11.55122        -4.77319
   H       -5.54653       -11.03728        -4.64293
   H       -4.43571       -13.29558        -3.17719
   H       -5.39757       -13.41096        -4.51279
   H       -2.74727       -10.30666        -1.50549
   H       -2.24230       -10.87760        -3.10597
   H       -3.50793       -12.56078        -1.08375
   H       -1.95468       -12.63684        -1.59588
   H       -2.60880        -9.74238        -5.14881
   H       -1.36658        -7.60938        -5.64140
   H       -2.69253        -5.59550        -6.48702
   H       -4.36442        -5.05987        -4.76880
   H       -5.95875        -4.99081        -2.69005
   H       -7.29167        -5.44198        -0.69308
   H       -1.78656        -7.50365        -8.02029
   H       -3.86290        -9.62895        -7.28704
   H       -0.01967        -9.41814        -9.00353
   H        0.71170        -8.01464        -9.83629
   H        0.25880        -9.46271       -10.76421
   H       -3.77301       -11.15858       -13.51586
   H       -5.75630       -12.28545       -11.48152
   H       -6.71174       -13.32259       -13.43906
   H       -1.19705       -13.14519       -16.48313
   H       -1.32363       -13.52448       -18.91142
   H       -3.43668       -14.19707       -19.96753
   H       -5.47580       -14.48696       -18.63346
*
