# ORCA input file
# SCF done       -226.932646993614          0.000934976492
! CAM-B3LYP def2-SVP def2/J RIJCOSX Grid4 TightSCF
%maxcore 5000
%tddft
    Mode sTDDFT
    Ethresh 5.0
    maxcore 5000
end

%pal
  nprocs 6
  end
* xyz 0 1
   C       -9.41896        -1.80040        -3.74136
   C       -9.62810        -0.45916        -3.57549
   C      -10.63608         0.08849        -2.75368
   N      -11.43791         0.58131        -2.09764
   C       -8.79737         0.52997        -4.14038
   N       -8.12564         1.36831        -4.54526
   C      -10.12379        -2.87971        -3.06771
   C       -9.41314        -4.09136        -3.26937
   C       -9.83055        -5.28643        -2.73681
   C      -11.01090        -5.28979        -1.98565
   C      -11.71701        -4.07557        -1.79630
   C      -11.29021        -2.86441        -2.32348
   S      -13.14763        -4.31066        -0.83945
   C      -12.78419        -6.01074        -0.70623
   C      -11.65008        -6.38573        -1.34568
  Br      -13.93515        -7.12819         0.26269
   C       -8.21032        -3.82386        -4.08617
   O       -7.24915        -4.53296        -4.23634
   C       -8.39315        -2.41829        -4.57067
   C       -7.78008        -1.89179        -5.65129
   C       -6.97562        -2.66910        -6.55566
   N       -7.39919        -3.84104        -6.98400
   C       -6.47894        -4.26593        -7.88304
   C       -5.41593        -3.27699        -8.04708
   C       -4.41663        -3.73539        -9.02253
   O       -3.41813        -3.16676        -9.40659
   C       -4.94519        -5.05965        -9.41520
   C       -6.20931        -5.33910        -8.69865
   N       -6.69655        -6.55540        -9.04523
   C       -5.83262        -7.03817        -9.90428
   C       -4.71152        -6.15835       -10.17613
   C       -5.71010        -2.24028        -7.19272
   C       -4.94323        -1.06131        -6.99229
   C       -5.12450        -0.14115        -6.01934
   C       -4.35036         1.05876        -5.84507
   C       -3.16414         1.29175        -6.51751
   C       -2.46751         2.49189        -6.31561
   C       -1.27153         2.95646        -6.86853
   C       -0.42821         2.24361        -7.85892
   C       -0.30416         3.04687        -9.18856
   N        0.07515         2.26143       -10.33161
   C        0.95631         1.90070        -7.27868
   N        0.79627         0.86492        -6.27769
   C       -1.03654         4.26675        -6.30988
   C       -0.04810         5.16302        -6.49915
   C       -0.06980         6.49961        -5.83290
   C       -1.18184         6.69832        -4.85938
   C       -2.14946         5.78215        -4.65983
   C       -2.13458         4.56295        -5.37490
   C       -2.99660         3.48127        -5.39189
   C       -4.20529         3.21758        -4.70983
   C       -4.85069         2.04308        -4.93100
   C       -0.12700         7.47961        -6.97854
   C       -1.26330         8.01109        -7.45024
   C       -1.26344         8.89221        -8.57552
   N       -0.13782         9.26903        -9.16545
   C       -0.50350        10.06810       -10.18458
   C       -1.96328        10.23402       -10.23974
   C       -2.33960        11.08925       -11.37892
   O       -3.44680        11.46157       -11.71296
   C       -1.04327        11.38735       -12.00303
   C        0.05371        10.75886       -11.23631
   N        1.24962        11.02131       -11.81065
   C        0.96974        11.74762       -12.86889
   C       -0.44161        12.00739       -13.05209
   C       -2.46720         9.46902        -9.21260
   C       -3.81641         9.21905        -8.83816
   C       -4.85893         9.77881        -9.49874
   C       -6.22058         9.51568        -9.20909
   C       -7.26091         9.82888       -10.02722
   C       -7.25816        10.30974       -11.39591
   C       -6.33029        10.01448       -12.35811
   C       -6.40577        10.48183       -13.68699
   N       -6.43061        10.83997       -14.77685
   C       -5.26602         9.10317       -12.17948
   N       -4.44324         8.30563       -12.11762
   C       -8.54484        10.95943       -11.62140
   C       -9.39710        10.67618       -10.52285
   C       -8.65514         9.89163        -9.51499
   O       -9.06781         9.43924        -8.47210
   C      -10.69971        11.11079       -10.47067
   C      -11.18017        11.86607       -11.54490
   C      -10.31645        12.15580       -12.62868
   C       -9.00122        11.71175       -12.68649
   S      -11.11266        13.10936       -13.84246
   C      -12.57644        13.10182       -12.89424
   C      -12.47578        12.42324       -11.72721
  Br      -14.09790        13.99119       -13.53461
   H       -9.26835        -6.19205        -2.90078
   H      -11.86015        -1.96496        -2.15772
   H      -11.27871        -7.39395        -1.36675
   H       -7.94892        -0.85939        -5.93360
   H       -5.98932        -8.00690       -10.34621
   H       -3.90039        -6.37157       -10.84398
   H       -4.14267        -0.94348        -7.71082
   H       -5.92310        -0.28255        -5.30254
   H       -2.75772         0.54779        -7.18426
   H       -0.90992         1.28859        -8.09368
   H        0.43399         3.84321        -9.07144
   H       -1.26963         3.50893        -9.40906
   H        0.96996         1.80604       -10.19811
   H       -0.61838         1.55463       -10.54544
   H        1.43324         2.81761        -6.89483
   H        1.59317         1.49414        -8.07021
   H        0.24365         1.20530        -5.49800
   H        1.69321         0.55436        -5.92405
   H        0.77166         4.98892        -7.18010
   H        0.88880         6.65458        -5.31781
   H       -1.18420         7.64079        -4.33349
   H       -2.94492         5.96322        -3.95176
   H       -4.60524         3.94945        -4.02428
   H       -5.78488         1.83672        -4.43081
   H        0.80225         7.72377        -7.47262
   H       -2.21253         7.77502        -6.99083
   H        1.76017        12.09709       -13.51026
   H       -0.87484        12.57113       -13.85433
   H       -4.00166         8.51228        -8.04015
   H       -4.64790        10.47652       -10.29754
   H       -6.47524         9.09078        -8.24404
   H      -11.32967        10.87443        -9.62744
   H       -8.37616        11.96056       -13.52801
   H      -13.28028        12.31835       -11.02241
*
