# ORCA input file
# SCF done       -223.237514454999          0.000419615059
! CAM-B3LYP def2-SVP def2/J RIJCOSX Grid4 TightSCF
%maxcore 5000
%tddft
    Mode sTDDFT
    Ethresh 5.0
    maxcore 5000
end

%pal
  nprocs 6
  end
* xyz 0 1
   C       -3.41646         8.11302         1.91958
   C       -2.66188         8.78606         0.98584
   C       -2.91521         8.76769        -0.39780
   N       -3.03642         8.76655        -1.54078
   C       -1.59203         9.64465         1.29588
   N       -0.73982        10.39527         1.47637
   C       -4.72056         7.51176         1.64361
   C       -5.41733         7.36688         2.87792
   C       -6.68513         6.86787         2.93179
   C       -7.32002         6.46802         1.73280
   C       -6.62177         6.59286         0.49824
   C       -5.31137         7.12648         0.47241
   C       -7.26121         6.18056        -0.68778
   C       -8.53133         5.67187        -0.65909
   C       -9.21914         5.55125         0.55688
   C       -8.62615         5.94150         1.72715
   C       -4.53682         7.80193         3.98013
   O       -4.79913         7.85799         5.16390
   C       -3.23125         8.09698         3.34529
   C       -2.12224         8.16277         4.15594
   C       -0.77271         7.97235         3.86569
   S       -0.20065         7.37780         2.33612
   C        1.44690         7.37274         2.82968
   C        1.57186         7.79378         4.16158
   C        0.31802         8.12113         4.75571
   C        0.27025         8.56920         6.08045
   C        1.42170         8.71157         6.82373
   C        1.32126         9.17629         8.26757
   C        0.45487         8.17868         9.05069
   C        2.68371         9.26828         8.96010
   C        0.67196        10.56741         8.30045
   C        2.65920         8.43421         6.20473
   C        2.74451         7.99417         4.91256
   C        2.44060         7.00517         1.85723
   C        2.22168         7.35543         0.54264
   C        3.14402         7.01311        -0.46506
   C        3.16959         7.23652        -1.83607
   C        2.33657         8.07234        -2.75479
   C        1.13466         8.79844        -2.13426
   N        1.55639         9.91383        -1.30289
   C        3.20548         9.13235        -3.48113
   N        2.57272         9.49994        -4.73298
   C        4.28039         6.45484        -2.34595
   C        4.62868         6.13903        -3.60662
   C        5.77967         5.23947        -3.90426
   C        6.54178         4.78783        -2.69539
   C        6.15168         5.07273        -1.44061
   C        4.99579         5.85870        -1.21142
   C        4.29260         6.19297        -0.07606
   C        4.49272         5.84973         1.28250
   C        3.60776         6.25867         2.22419
   C        6.71036         5.92255        -4.87190
   C        7.08757         5.37905        -6.03339
   C        7.99158         5.94795        -6.98905
   S        8.91865         4.87062        -7.95572
   C        9.76319         6.17626        -8.74080
   C        9.28165         7.42591        -8.26425
   C        8.26351         7.29646        -7.28197
   C        7.61461         8.44027        -6.78135
   C        7.99475         9.69545        -7.18817
   C        7.32363        10.96317        -6.68648
   C        6.17763        10.67592        -5.71207
   C        8.36751        11.82493        -5.96249
   C        6.74945        11.73388        -7.88387
   C        9.05196         9.80568        -8.11845
   C        9.67560         8.71280        -8.65799
   C       10.76503         6.05732        -9.69791
   C       11.31662         4.93942       -10.28826
   C       12.36420         4.94465       -11.28434
   C       13.00823         6.03665       -11.81586
   C       14.02829         5.95698       -12.78507
   N       14.86426         5.96703       -13.57288
   C       12.75744         7.38268       -11.48596
   N       12.61190         8.50372       -11.27422
   C       12.63381         3.55421       -11.64563
   C       11.76862         2.71521       -10.88641
   C       10.92844         3.55671       -10.02018
   O       10.07484         3.16547        -9.23695
   C       11.78413         1.35709       -11.00991
   C       12.68613         0.75948       -11.91985
   C       13.55571         1.58956       -12.68283
   C       13.51551         2.99611       -12.53101
   C       14.45037         0.98414       -13.58758
   C       14.48561        -0.37636       -13.73383
   C       13.62855        -1.19272       -12.98208
   C       12.74786        -0.63648       -12.09386
   H       -7.20026         6.77590         3.87651
   H       -4.80288         7.20464        -0.47598
   H       -6.72813         6.27852        -1.62231
   H       -9.01299         5.36022        -1.57405
   H      -10.22078         5.14755         0.56245
   H       -9.15113         5.85052         2.66707
   H       -2.36254         8.27475         5.20918
   H       -0.69050         8.80485         6.50935
   H        0.89556         7.18445         9.01159
   H       -0.55183         8.12137         8.64689
   H        0.38525         8.48384        10.09233
   H        3.18327         8.30213         8.97560
   H        2.54214         9.58752         9.99051
   H        3.32575         9.99732         8.47107
   H       -0.33351        10.54746         7.89001
   H        1.26291        11.27319         7.72039
   H        0.61334        10.92650         9.32548
   H        3.57464         8.57693         6.75405
   H        3.70840         7.82000         4.46098
   H        1.31754         7.89198         0.30686
   H        1.93865         7.40218        -3.52923
   H        0.49133         8.06300        -1.62181
   H        0.55518         9.22428        -2.95740
   H        2.13668         9.60172        -0.53203
   H        0.74911        10.38672        -0.91230
   H        4.23362         8.75600        -3.60631
   H        3.23444        10.01769        -2.84442
   H        2.70097         8.78108        -5.43697
   H        2.94682        10.37012        -5.08863
   H        4.07425         6.49737        -4.46323
   H        5.37794         4.34587        -4.40774
   H        7.42163         4.19481        -2.89245
   H        6.70765         4.69833        -0.59325
   H        5.34492         5.24332         1.55224
   H        3.72794         5.96566         3.25534
   H        7.10385         6.87019        -4.53698
   H        6.74433         4.38081        -6.28069
   H        6.79679         8.30006        -6.09697
   H        6.53453        10.16005        -4.82332
   H        5.40347        10.07816        -6.18837
   H        5.73025        11.61506        -5.39358
   H        8.78985        11.27870        -5.12152
   H        7.90345        12.73332        -5.58526
   H        9.17898        12.10873        -6.62642
   H        6.02931        11.11801        -8.41882
   H        7.52873        12.02878        -8.58043
   H        6.24494        12.63380        -7.53949
   H        9.37331        10.78437        -8.43831
   H       10.45845         8.85257        -9.38766
   H       11.16255         7.00818       -10.02492
   H       11.11660         0.74421       -10.42236
   H       14.18765         3.59466       -13.12483
   H       15.10858         1.61712       -14.16463
   H       15.17460        -0.83032       -14.43037
   H       13.66885        -2.26428       -13.10967
   H       12.08504        -1.26037       -11.51188
*
