# ORCA input file
# SCF done       -198.741607118701          0.000432341921
! CAM-B3LYP def2-SVP def2/J RIJCOSX Grid4 TightSCF
%maxcore 5000
%tddft
    Mode sTDDFT
    Ethresh 5.0
    maxcore 5000
end

%pal
  nprocs 6
  end
* xyz 0 1
   C       -3.74066         7.96020        -1.90935
   C       -3.42387         6.88320        -2.69689
   C       -4.23972         6.39965        -3.74200
   N       -4.84783         5.95295        -4.60727
   C       -2.24777         6.11076        -2.61137
   N       -1.31260         5.44229        -2.61846
   C       -4.94506         8.77010        -2.04295
   C       -4.89865         9.81677        -1.07958
   C       -5.88852        10.75116        -0.97667
   C       -7.00025        10.67467        -1.84451
   C       -7.05928         9.62637        -2.80783
   C       -6.01473         8.67817        -2.89513
   C       -8.17469         9.55687        -3.66750
   C       -9.18319        10.47753        -3.58135
   C       -9.12321        11.50986        -2.63310
   C       -8.05522        11.60608        -1.78281
   C       -3.67483         9.69193        -0.27069
   O       -3.32172        10.44054         0.61570
   C       -2.95750         8.50401        -0.80814
   C       -1.71297         8.08175        -0.45498
   C       -0.91859         8.50294         0.66047
   C       -1.47622         8.81802         1.87195
   S       -0.36434         9.14654         3.12463
   C        0.95803         8.90601         2.01554
   C        0.53096         8.55563         0.70949
   C        1.52007         8.37811        -0.27229
   C        1.19479         7.97778        -1.68256
   C        0.51599         9.10668        -2.46050
   C        2.85456         8.57170         0.12179
   C        3.11614         8.83979         1.49254
   N        2.20097         9.01819         2.41863
   S        4.80694         8.89368         1.86897
   C        5.17508         8.60987         0.20667
   C        4.09648         8.47546        -0.60812
   C        4.29732         8.29644        -2.04189
   N        3.83555         9.21639        -2.95906
   C        4.22792         8.81299        -4.19999
   C        4.15786         9.11763        -5.56150
   C        4.85149         8.10389        -6.21778
   N        5.33662         7.20500        -5.28960
   C        4.95699         7.61781        -4.05209
   C        5.01034         7.30212        -2.68515
   C        5.03842         7.96903        -7.62663
   C        5.80299         7.05030        -8.24244
   C        5.86913         6.93107        -9.68934
   C        4.73927         7.01775       -10.44303
   S        4.96927         6.81626       -12.14258
   C        6.67138         6.63128       -11.88180
   C        7.03705         6.71996       -10.51148
   C        8.40116         6.66669       -10.19142
   C        8.85544         6.62808        -8.76475
   C        8.78209         5.18649        -8.25061
   C        9.30185         6.55593       -11.25949
   C        8.77017         6.37334       -12.55987
   N        7.49986         6.41822       -12.88092
   S       10.00059         6.08789       -13.75834
   C       11.20958         6.23891       -12.55128
   C       10.74485         6.51199       -11.29487
   C       11.65890         6.87991       -10.24574
   C       12.87948         6.35365        -9.99565
   C       13.54078         5.16089       -10.49437
   C       12.93296         3.99799       -10.88312
   C       13.63261         2.84481       -11.29320
   N       14.15736         1.88807       -11.64897
   C       11.53967         3.79650       -10.82487
   N       10.41826         3.56895       -10.73106
   C       14.97217         5.35011       -10.29492
   C       15.17110         6.50380        -9.48001
   C       13.86753         7.12389        -9.18630
   O       13.63122         8.08044        -8.48418
   C       16.41947         6.90847        -9.10372
   C       17.54417         6.17499        -9.54390
   C       17.35271         5.03111       -10.37222
   C       16.04814         4.62820       -10.73788
   C       18.48413         4.31554       -10.81416
   C       19.74470         4.70775       -10.45482
   C       19.93221         5.83260        -9.63758
   C       18.85562         6.54983        -9.19119
   H       -5.82446        11.53682        -0.23842
   H       -6.08941         7.90069        -3.63843
   H       -8.21630         8.76045        -4.39600
   H      -10.03340        10.41559        -4.24390
   H       -9.92746        12.22831        -2.57979
   H       -8.00346        12.39841        -1.05039
   H       -1.26426         7.31751        -1.07007
   H       -2.52238         8.81644         2.10471
   H        0.55582         7.09348        -1.67711
   H        2.11059         7.68784        -2.19274
   H       -0.42907         9.39067        -2.00294
   H        0.32592         8.78745        -3.48212
   H        1.14754         9.99173        -2.48655
   H        6.20268         8.57197        -0.09882
   H        3.34157        10.05897        -2.72461
   H        3.67934         9.95290        -6.03250
   H        5.84517         6.36766        -5.51063
   H        5.47031         6.45801        -2.21219
   H        4.51881         8.70569        -8.22404
   H        6.35991         6.32872        -7.66488
   H        3.74247         7.16129       -10.07366
   H        8.22660         7.28468        -8.16133
   H        9.88378         6.96805        -8.67458
   H        9.09165         5.14329        -7.20857
   H        9.43877         4.54870        -8.83832
   H        7.77396         4.78804        -8.33891
   H       12.24114         6.19575       -12.84725
   H       11.41597         7.77365        -9.67935
   H       16.54854         7.78077        -8.48031
   H       15.93070         3.76338       -11.37233
   H       18.33429         3.44853       -11.44065
   H       20.60488         4.15296       -10.79829
   H       20.93399         6.12826        -9.36406
   H       18.99399         7.41693        -8.56202
*
