# ORCA input file
# SCF done       -206.562789848261          0.000729444237
! CAM-B3LYP def2-SVP def2/J RIJCOSX Grid4 TightSCF
%maxcore 5000
%tddft
    Mode sTDDFT
    Ethresh 5.0
    maxcore 5000
end

%pal
  nprocs 6
  end
* xyz 0 1
   C      -13.12338        -9.45006        -8.50159
   C      -11.89759        -9.38233        -7.87015
   C      -10.75564       -10.09690        -8.28449
   N       -9.79032       -10.65590        -8.56036
   C      -11.56771        -8.60583        -6.75157
   N      -11.15691        -8.02484        -5.84659
   C      -13.39155       -10.23824        -9.70464
   C      -14.73165       -10.01267       -10.10014
   C      -15.29126       -10.60543       -11.20359
   C      -14.48815       -11.46987       -11.95723
   C      -13.15202       -11.69237       -11.55376
   C      -12.58578       -11.08879       -10.43591
   S      -12.33731       -12.79551       -12.62163
   C      -13.78491       -12.93930       -13.58250
   C      -14.82528       -12.20076       -13.12933
  Br      -13.78608       -14.05021       -15.09445
   C      -15.36684        -9.07783        -9.14680
   O      -16.51279        -8.67410        -9.20290
   C      -14.33086        -8.76509        -8.14290
   C      -14.53916        -7.96178        -7.02976
   C      -15.72827        -7.30108        -6.76709
   C      -15.95944        -6.50840        -5.65085
   C      -17.12534        -5.76275        -5.39288
   C      -17.07693        -5.03524        -4.23208
   C      -15.87555        -5.19322        -3.52623
   S      -14.80377        -6.28668        -4.36081
   C      -15.48265        -4.57804        -2.33609
   C      -16.11712        -3.56247        -1.60838
   C      -15.39702        -3.14865        -0.51552
   C      -14.16090        -3.80012        -0.35122
   S      -13.97253        -5.00959        -1.59456
   C      -13.29012        -3.56603         0.71484
   C      -11.99516        -3.98629         0.95848
   S      -11.40392        -3.83370         2.60152
   C       -9.84626        -4.53037         2.22947
   C       -9.82272        -4.96167         0.87023
   C      -10.98050        -4.57442         0.14595
   C      -10.98842        -4.76827        -1.23459
   C      -10.02126        -5.53014        -1.85009
   C      -10.27388        -5.84974        -3.29337
   O      -10.78329        -5.05643        -4.04714
   O       -9.98106        -7.09432        -3.59609
   C       -8.94687        -6.05594        -1.09750
   O       -8.03194        -6.81619        -1.71961
   C       -8.83442        -5.72387         0.24364
   C       -8.86301        -4.53141         3.20182
   C       -7.49300        -4.63824         2.98745
   C       -6.52387        -4.75670         3.96821
   C       -6.69450        -5.11289         5.30388
   C       -5.66439        -5.27637         6.24704
   C       -6.07478        -5.78594         7.45354
   C       -7.45065        -6.04977         7.50438
   S       -8.21878        -5.58455         6.01165
   C       -8.19764        -6.69799         8.48515
   C       -7.78214        -7.33693         9.66268
   C       -8.76681        -8.08843        10.24790
   C       -9.98923        -8.09466         9.54320
   S       -9.89218        -7.00162         8.19430
   C      -11.11544        -8.83730         9.87822
   C      -12.30397        -9.01723         9.18626
   C      -12.70445        -8.76563         7.87890
   C      -12.02981        -8.57085         6.63622
   C      -10.74428        -8.96581         6.31263
   C      -10.11215        -8.67684         5.09182
   N       -9.52874        -8.42542         4.13306
   C       -9.95918        -9.77337         7.15445
   N       -9.30341       -10.45377         7.80782
   C      -13.00393        -8.06880         5.66490
   C      -14.29336        -8.15780         6.24161
   C      -14.16076        -8.64182         7.63380
   O      -15.05672        -8.86567         8.41980
   C      -15.43520        -7.84218         5.55080
   C      -15.29510        -7.40676         4.22763
   C      -14.00243        -7.28750         3.67159
   C      -12.84491        -7.61299         4.37177
   S      -14.06534        -6.73656         2.02131
   C      -15.80854        -6.70370         2.09867
   C      -16.31638        -7.06435         3.29870
  Br      -16.80662        -6.22225         0.58561
   H      -16.31598       -10.41035       -11.47851
   H      -11.56211       -11.29483       -10.17284
   H      -15.79089       -12.17116       -13.60031
   H      -13.72813        -7.83859        -6.32080
   H      -16.53586        -7.39028        -7.47996
   H      -17.95943        -5.77227        -6.07146
   H      -17.87188        -4.40538        -3.87619
   H      -17.06743        -3.15238        -1.89606
   H      -15.71940        -2.37317         0.15671
   H      -13.73312        -2.98389         1.51669
   H      -11.74741        -4.33462        -1.85989
   H      -10.30475        -7.33637        -4.50223
   H       -7.37585        -7.14860        -1.09345
   H       -8.00375        -6.10612         0.81768
   H       -9.20090        -4.31423         4.20692
   H       -7.13809        -4.54244         1.97072
   H       -5.49314        -4.62874         3.66145
   H       -4.64208        -5.03677         6.01229
   H       -5.41803        -5.99734         8.27773
   H       -6.77434        -7.26559        10.02969
   H       -8.62890        -8.68257        11.13327
   H      -11.06368        -9.30683        10.85327
   H      -13.12873        -9.38434         9.79293
   H      -16.40754        -7.93870         6.00766
   H      -11.87913        -7.51204         3.90496
   H      -17.36748        -7.09989         3.52038
*
