# ORCA input file
# SCF done       -198.536513053183          0.000588060188
! CAM-B3LYP def2-SVP def2/J RIJCOSX Grid4 TightSCF
%maxcore 5000
%tddft
    Mode sTDDFT
    Ethresh 5.0
    maxcore 5000
end

%pal
  nprocs 6
  end
* xyz 0 1
   C       -5.80172         5.28279        -0.99181
   C       -4.47809         5.52488        -0.72247
   C       -3.87658         6.79755        -0.81484
   N       -3.33339         7.80872        -0.83660
   C       -3.55200         4.56695        -0.26690
   N       -2.74803         3.82677         0.08866
   C       -6.74494         6.26607        -1.50733
   C       -8.05031         5.71837        -1.46740
   C       -9.15302         6.41227        -1.89829
   C       -8.94987         7.67871        -2.45901
   C       -7.63656         8.19767        -2.53230
   C       -6.52897         7.52481        -2.03593
   S       -7.59477         9.73715        -3.33244
   C       -9.32217         9.66839        -3.55132
   C       -9.90346         8.55447        -3.04531
  Br      -10.19144        11.06149        -4.45725
   C       -7.97662         4.33874        -0.94746
   O       -8.90212         3.63177        -0.59726
   C       -6.53476         4.04393        -0.80774
   C       -5.98778         2.82893        -0.51040
   N       -6.59532         1.61791        -0.55078
   C       -7.76638         1.25228        -1.16551
   S       -8.72321         0.00630        -0.42944
   C       -9.87386         0.14671        -1.71379
   N      -10.98440        -0.70582        -1.70061
   O      -11.78995        -0.59958        -2.60657
   O      -11.05872        -1.49834        -0.77727
   C       -9.53699         1.09659        -2.64027
   C       -8.31393         1.73112        -2.35499
   C       -7.70080         2.73773        -3.19605
   C       -8.42751         3.61808        -3.90403
   C       -7.92453         4.71812        -4.69355
   C       -6.59014         4.80147        -5.11967
   C       -6.16453         5.91353        -5.80361
   C       -7.03858         7.00027        -6.00739
   C       -8.37398         6.90357        -5.64487
   C       -8.80847         5.75582        -5.01570
   C       -6.29070         8.09591        -6.57766
   C       -4.96406         7.67152        -6.77189
   C       -4.81605         6.20553        -6.42112
   C       -3.63050         5.92600        -5.49170
   C       -3.72982         6.70634        -4.18869
   C       -4.66341         5.44527        -7.76334
   C       -4.68582         3.92610        -7.66384
   C       -4.01545         8.53179        -7.25728
   C       -4.36103         9.86496        -7.54873
   C       -5.69155        10.27049        -7.34571
   C       -6.65402         9.40400        -6.87253
   C       -3.40102        10.81573        -8.03867
   C       -2.11201        10.51862        -8.34589
   C       -1.12597        11.40451        -8.81589
   C        0.14342        10.96466        -9.10381
   C        1.26643        11.69201        -9.56661
   C        2.38937        10.93875        -9.75345
   C        2.21718         9.57127        -9.45351
   S        0.58139         9.27154        -8.91768
   C        3.10313         8.51319        -9.52935
   C        4.45907         8.47601        -9.91487
   C        5.00815         7.22860        -9.86811
   C        4.11725         6.20876        -9.44790
   S        2.54830         6.90772        -9.10373
   C        4.39321         4.86936        -9.32352
   C        3.50476         3.85605        -8.93075
   C        3.79465         2.49629        -8.82294
   C        2.71486         1.72177        -8.42918
   C        1.56920         2.48889        -8.22521
   S        1.82994         4.16349        -8.51831
   C        0.38498         1.81788        -7.83138
   C        0.43511         0.44234        -7.67688
  Ge        2.26862        -0.16452        -8.06269
   C        2.40805        -1.34345        -9.65355
   C        3.20430        -0.90410        -6.47605
   C       -0.80992        -0.08455        -7.29722
   C       -1.77078         0.87251        -7.16896
   S       -1.18510         2.45758        -7.50781
   H      -10.13975         5.98155        -1.83196
   H       -5.55262         7.97628        -2.08952
   H      -10.95794         8.35228        -3.09466
   H       -4.94571         2.77120        -0.22401
   H       -6.16538         0.89309         0.01088
   H      -10.13853         1.29335        -3.50883
   H       -6.62069         2.77642        -3.19376
   H       -9.50541         3.57060        -3.81761
   H       -5.91111         3.98863        -4.91205
   H       -9.06157         7.70971        -5.85380
   H       -9.84694         5.66228        -4.73256
   H       -2.70620         6.18856        -6.00903
   H       -3.59080         4.85956        -5.26564
   H       -3.76968         7.77628        -4.38018
   H       -2.86841         6.50500        -3.55637
   H       -4.63261         6.42023        -3.65292
   H       -3.72033         5.75876        -8.21563
   H       -5.47214         5.76638        -8.42514
   H       -3.87563         3.56009        -7.03887
   H       -4.55842         3.50030        -8.65660
   H       -5.63378         3.57595        -7.26299
   H       -3.00335         8.18735        -7.39654
   H       -5.96165        11.29259        -7.56992
   H       -7.67026         9.74149        -6.73057
   H       -3.75187        11.83156        -8.17046
   H       -1.77422         9.49728        -8.23073
   H       -1.35917        12.45127        -8.95213
   H        1.21056        12.75145        -9.74645
   H        3.33049        11.32828       -10.09977
   H        4.98999         9.36247       -10.21360
   H        6.02847         7.00446       -10.12639
   H        5.40061         4.55019        -9.55933
   H        4.77453         2.10373        -9.03414
   H        1.88877        -0.90205       -10.49811
   H        1.96778        -2.31289        -9.44164
   H        3.44970        -1.48898        -9.92204
   H        3.09940        -0.23317        -5.62941
   H        4.26069        -1.03316        -6.68961
   H        2.78574        -1.86957        -6.20925
   H       -0.99123        -1.13153        -7.12632
   H       -2.80096         0.74723        -6.89748
*
