# ORCA input file
# SCF done       -202.791190503214          0.000847088372
! CAM-B3LYP def2-SVP def2/J RIJCOSX Grid4 TightSCF
%maxcore 5000
%tddft
    Mode sTDDFT
    Ethresh 5.0
    maxcore 5000
end

%pal
  nprocs 6
  end
* xyz 0 1
   C       -5.83209        -2.24997        -2.07948
   C       -5.28779        -2.59207        -0.86788
   C       -4.70056        -3.84613        -0.59230
   N       -4.20153        -4.83682        -0.29583
   C       -5.23454        -1.79854         0.29845
   N       -5.14432        -1.24956         1.30446
   C       -5.90761        -3.14288        -3.22874
   C       -6.62713        -2.49137        -4.25656
   C       -6.88177        -3.07396        -5.47430
   C       -6.39823        -4.36771        -5.69078
   C       -5.67367        -5.01232        -4.65965
   C       -5.41875        -4.42184        -3.42866
   S       -5.16215        -6.60309        -5.13730
   C       -5.92079        -6.38431        -6.69184
   C       -6.52481        -5.18244        -6.84886
  Br       -5.84074        -7.76152        -7.96239
   C       -7.02865        -1.14411        -3.80842
   O       -7.66874        -0.35920        -4.47665
   C       -6.47769        -0.98898        -2.44018
   C       -6.46006         0.09406        -1.60738
   C       -7.02731         1.40660        -1.63636
   C       -6.73169         2.22657        -0.52171
   C       -7.26372         3.48523        -0.43203
   C       -8.06846         3.98601        -1.47637
   C       -8.36691         3.19409        -2.57764
   C       -7.85976         1.91456        -2.64813
   C       -8.41999         5.35250        -1.17442
   C       -7.83858         5.70113         0.05725
   C       -7.11482         4.51734         0.66337
   C       -7.89814         4.11378         1.93586
   C       -7.44586         2.82906         2.61717
   C       -5.64596         4.83156         0.98301
   C       -4.89240         5.37036        -0.22784
   C       -7.98749         6.96525         0.57033
   C       -8.72238         7.92215        -0.14705
   C       -9.29295         7.55840        -1.37504
   C       -9.15405         6.28748        -1.89202
   C       -8.87061         9.28301         0.31651
   C       -8.54674         9.71313         1.54603
   N       -8.63088        11.02507         1.93913
   C       -8.21036        11.51696         3.13450
   S       -9.02212        12.92637         3.75913
   C       -8.10950        12.79442         5.23189
   N       -8.32966        13.74434         6.22426
   O       -7.71187        13.62921         7.27251
   O       -9.13416        14.63027         5.97849
   C       -7.23979        11.73732         5.22362
   C       -7.24706        11.00639         4.01690
   C       -6.27307         9.96097         3.82664
   C       -5.74789         9.49248         2.66809
   C       -4.72543         8.51291         2.56011
   C       -3.86728         8.07097         3.53207
   C       -2.85674         7.08135         3.36694
   C       -2.06444         6.88625         4.45536
   C       -2.39234         7.71142         5.55537
   S       -3.76904         8.71934         5.16036
   C       -1.81760         7.82924         6.80045
   C       -0.76284         7.09438         7.39661
   C       -0.47755         7.48231         8.66595
   C       -1.28271         8.55511         9.15348
   S       -2.43204         9.03516         7.91062
   C       -1.13953         9.21013        10.34159
   C       -1.88428        10.37319        10.72572
   C       -3.19768        10.65866        10.37886
   O       -4.08761         9.72913         9.93959
   C       -4.10016         8.46843        10.57698
   C       -3.75295        11.99332        10.48361
   O       -4.97795        12.09809         9.93998
   C       -5.58121        13.37281         9.87055
   C       -3.06383        13.01289        11.08682
   C       -1.79176        12.71147        11.60576
   C       -1.20051        11.40819        11.42699
   N       -0.00954        11.43196        11.98077
   O        0.14005        12.66084        12.48828
   N       -0.92236        13.44615        12.26877
   H       -7.43684        -2.54676        -6.23431
   H       -4.85913        -4.95674        -2.68033
   H       -7.03857        -4.88109        -7.74340
   H       -5.89148        -0.06737        -0.69865
   H       -6.07736         1.84610         0.24890
   H       -8.98893         3.57461        -3.37355
   H       -8.09447         1.29810        -3.49832
   H       -8.95192         4.01334         1.66208
   H       -7.82017         4.94065         2.64572
   H       -7.60264         1.96808         1.97370
   H       -8.02950         2.68055         3.52307
   H       -6.39741         2.87394         2.89833
   H       -5.15449         3.92249         1.33131
   H       -5.61015         5.56418         1.79272
   H       -4.91113         4.64969        -1.04258
   H       -3.85363         5.56559         0.02998
   H       -5.34096         6.29620        -0.58237
   H       -7.51821         7.22836         1.50551
   H       -9.85625         8.29823        -1.92547
   H       -9.60180         6.02817        -2.83940
   H       -9.26198         9.99204        -0.40234
   H       -8.20531         9.04364         2.31749
   H       -9.14374        11.65706         1.33758
   H       -6.58849        11.51938         6.05159
   H       -5.89654         9.57334         4.76065
   H       -6.11882         9.86610         1.72241
   H       -4.57505         8.09119         1.57399
   H       -2.75055         6.54936         2.43753
   H       -1.24747         6.18777         4.49545
   H       -0.25651         6.30333         6.87235
   H        0.28925         7.04585         9.28140
   H       -0.29982         8.95139        10.97163
   H       -5.13759         8.13427        10.55721
   H       -3.75681         8.54127        11.61178
   H       -3.48083         7.73506        10.05191
   H       -5.85620        13.73530        10.86545
   H       -6.47440        13.25093         9.26026
   H       -4.91873        14.09770         9.39005
   H       -3.45758        14.00754        11.19539
*
