# ORCA input file
# SCF done       -142.069793207543          0.000389433878
! CAM-B3LYP def2-SVP def2/J RIJCOSX Grid4 TightSCF
%maxcore 5000
%tddft
    Mode sTDDFT
    Ethresh 5.0
    maxcore 5000
end

%pal
  nprocs 6
  end
* xyz 0 1
   C       28.20127       -17.81338         1.33360
   C       27.44793       -16.74144         1.04508
   C       27.88109       -15.46558         0.55848
   C       26.88060       -14.57510         0.35813
   C       25.58684       -15.06760         0.66769
   S       25.68675       -16.72414         1.22857
   C       24.38638       -14.39315         0.56994
   C       24.16632       -13.06901         0.13699
   C       22.85421       -12.68960         0.16667
   C       21.97124       -13.68651         0.62311
   S       22.86568       -15.14357         1.01099
   C       20.59964       -13.57364         0.77861
   C       19.77357       -14.57798         1.24746
   C       18.40875       -14.44790         1.44796
   C       17.52877       -15.42635         1.94416
   C       16.23372       -15.00566         2.07642
   C       16.02824       -13.66873         1.68801
   S       17.53196       -12.96279         1.13317
   C       14.85539       -12.93524         1.73097
   C       13.58789       -13.34613         2.19551
   C       12.63763       -12.37412         2.14422
   C       13.09101       -11.12464         1.63520
   S       14.79174       -11.27008         1.19497
   C       12.34703        -9.98230         1.58672
   C       12.73430        -8.68725         1.09985
   C       12.10504        -7.51117         1.58423
   N       11.17433        -7.54269         2.58679
   C       12.51674        -6.27156         1.08663
   C       13.51396        -6.16256         0.14751
   C       14.13722        -7.30998        -0.36110
   C       13.72207        -8.54511         0.12465
   C       15.16541        -7.26888        -1.37580
   C       15.85101        -6.18453        -1.76632
   N       16.79032        -6.23163        -2.76976
   C       17.65152        -5.24714        -3.10164
   S       17.79325        -3.80720        -2.14233
   C       19.10517        -3.27527        -3.15541
   N       19.68146        -2.04852        -2.86646
   O       20.60999        -1.66970        -3.56580
   O       19.21419        -1.42567        -1.92019
   C       19.40344        -4.16465        -4.15862
   C       18.56765        -5.28902        -4.16326
   C       18.64197        -6.33361        -5.16396
   C       17.59506        -7.03157        -5.62850
   C       17.66714        -8.09806        -6.61451
   C       16.57228        -8.34771        -7.46906
   N       15.42713        -7.57877        -7.41486
   C       16.64126        -9.42530        -8.35126
   C       17.75914       -10.22617        -8.41025
   C       18.86539        -9.98299        -7.59065
   C       18.78902        -8.91518        -6.70179
   C       20.02620       -10.85540        -7.69262
   C       21.15746       -10.76750        -7.00240
   H       29.26909       -17.78296         1.20846
   H       27.76828       -18.72764         1.69548
   H       28.92365       -15.27040         0.38047
   H       27.02662       -13.57215        -0.00233
   H       24.97180       -12.43204        -0.18146
   H       22.49760       -11.71704        -0.12465
   H       20.15457       -12.62008         0.52224
   H       20.21601       -15.53544         1.49270
   H       17.87396       -16.41368         2.19662
   H       15.43327       -15.62202         2.44460
   H       13.41499       -14.34087         2.56585
   H       11.61922       -12.50606         2.46619
   H       11.34684       -10.08120         1.99261
   H       10.71589        -8.40873         2.80689
   H       10.64440        -6.70409         2.75102
   H       12.03415        -5.38055         1.46344
   H       13.79524        -5.18575        -0.21255
   H       14.16803        -9.43500        -0.29068
   H       15.40361        -8.22055        -1.83548
   H       15.71137        -5.20831        -1.32856
   H       16.92463        -7.12156        -3.23755
   H       20.18582        -3.98359        -4.87334
   H       19.62250        -6.48812        -5.59293
   H       16.59822        -6.78721        -5.28189
   H       15.53094        -6.62260        -7.11781
   H       14.79085        -7.70008        -8.18688
   H       15.79852        -9.62293        -8.99943
   H       17.78414       -11.05250        -9.10591
   H       19.61148        -8.72368        -6.03079
   H       19.92184       -11.65133        -8.42042
   H       21.33440       -10.00443        -6.26420
   H       21.96035       -11.46808        -7.15422
*
