# ORCA input file
# SCF done       -203.848993750053          0.000748823434
! CAM-B3LYP def2-SVP def2/J RIJCOSX Grid4 TightSCF
%maxcore 5000
%tddft
    Mode sTDDFT
    Ethresh 5.0
    maxcore 5000
end

%pal
  nprocs 6
  end
* xyz 0 1
   C        7.17774         2.43607         3.82605
   C        6.12645         2.27434         3.01259
   C        5.38661         3.29203         2.31999
   C        4.36897         2.82786         1.56467
   C        4.21545         1.41141         1.59135
   S        5.43068         0.69135         2.63088
   C        3.27880         0.66334         0.92807
   C        2.25860         1.11017         0.04740
   C        1.49292         0.11657        -0.46220
   C        1.86081        -1.19526        -0.03948
   S        3.20602        -1.08095         1.08666
   C        1.21785        -2.34047        -0.40412
   C        1.55389        -3.68966        -0.10586
   S        0.24919        -4.81807         0.14104
   C        1.33822        -6.15242         0.39224
   C        2.65102        -5.72263         0.27973
   C        2.76844        -4.34733        -0.02545
   C        4.07559        -3.72851        -0.41132
   N        3.90812        -2.92043        -1.65021
   O        3.29803        -3.42498        -2.56117
   O        4.43786        -1.83759        -1.67973
   C        5.11317        -4.80945        -0.72186
   C        5.15644        -5.78536         0.44403
   C        3.85248        -6.59007         0.49595
   N        3.81204        -7.20540         1.85485
   O        3.50696        -6.49838         2.77856
   O        4.13572        -8.36792         1.93378
   C        0.71260        -7.41256         0.62460
   C        1.27389        -8.63993         0.65706
   N        0.59711        -9.81189         0.86690
   C        1.31877       -10.97315         1.20014
   C        0.87183       -11.82000         2.21476
   S       -0.64476       -11.51214         3.07607
   C       -1.50385       -10.59014         1.83563
   C       -2.89083       -10.57629         1.86398
   C       -3.59591        -9.87313         0.90605
   C       -2.91641        -9.23834        -0.12140
   C       -1.53542        -9.25693        -0.15274
   C       -0.80882        -9.88140         0.85870
   C        1.62766       -12.92253         2.58949
   C        2.81565       -13.21140         1.94474
   C        3.24025       -12.40339         0.90327
   C        2.49668       -11.29821         0.53314
   C        0.13116       -13.54346        -0.77485
   C       -1.26945       -13.54771        -0.27841
   S       -2.45691       -12.58903        -1.08557
   C       -3.73630       -13.19790        -0.06875
   C       -3.22648       -14.08604         0.86154
   C       -1.82894       -14.28295         0.73214
   C       -1.06517       -15.21606         1.62238
   N       -0.08938       -16.01707         0.84171
   O        1.03335       -16.09270         1.27808
   O       -0.49246       -16.56709        -0.15271
   C       -2.01518       -16.20741         2.29926
   C       -3.15308       -15.44614         2.96218
   C       -4.04483       -14.78822         1.90735
   N       -4.92023       -13.81173         2.61498
   O       -4.38133       -12.95758         3.27240
   O       -6.11294       -13.94594         2.48798
   C       -5.07640       -12.77632        -0.27658
   C       -5.40289       -11.72576        -1.07494
   C       -6.71030       -11.25395        -1.28521
   C       -6.99243       -10.10178        -1.96941
   C       -8.27139        -9.54370        -2.23133
   C       -8.24345        -8.36529        -2.90610
   C       -6.93739        -7.90740        -3.21525
   S       -5.74568        -9.05352        -2.63161
   C       -6.57209        -6.74635        -3.85127
   C       -7.42908        -5.73759        -4.37608
   C       -6.78152        -4.69512        -4.94005
   C       -5.34982        -4.79462        -4.90377
   S       -4.89415        -6.30986        -4.10835
   C       -4.45390        -3.91731        -5.37470
   H        7.56762         3.41749         4.03087
   H        7.66248         1.60062         4.29682
   H        5.65585         4.32852         2.42159
   H        3.71334         3.44904         0.98045
   H        2.13020         2.15238        -0.18325
   H        0.67998         0.26299        -1.15128
   H        0.28623        -2.20980        -0.94123
   H        4.45868        -3.04556         0.35532
   H        6.09221        -4.35135        -0.86827
   H        4.82846        -5.33263        -1.63837
   H        5.26812        -5.22339         1.37488
   H        6.00300        -6.46621         0.34437
   H        3.89015        -7.41585        -0.22347
   H       -0.35803        -7.33608         0.75563
   H        2.33638        -8.78792         0.57377
   H        0.34325       -12.60624        -1.28401
   H       -3.40185       -11.11107         2.64939
   H       -4.67301        -9.84089         0.95022
   H       -3.45899        -8.72501        -0.89983
   H       -1.00499        -8.77328        -0.95836
   H        1.28747       -13.53590         3.41003
   H        3.39282       -14.07053         2.24522
   H        4.15467       -12.62966         0.37807
   H        2.83295       -10.67966        -0.28470
   H        0.84669       -13.67090         0.03473
   H        0.27654       -14.35438        -1.49176
   H       -0.48711       -14.66118         2.36967
   H       -1.47193       -16.79018         3.04487
   H       -2.41275       -16.89015         1.54386
   H       -2.74240       -14.66404         3.60625
   H       -3.74873       -16.12459         3.57514
   H       -4.72061       -15.51723         1.44370
   H       -5.86299       -13.31094         0.23660
   H       -4.60335       -11.18244        -1.56481
   H       -7.53707       -11.81097        -0.86552
   H       -9.16972       -10.03923        -1.90730
   H       -9.11903        -7.80694        -3.18524
   H       -8.49933        -5.82652        -4.31566
   H       -7.25976        -3.84227        -5.38819
   H       -4.77453        -3.00768        -5.85112
   H       -3.39641        -4.08953        -5.29310
*
