# ORCA input file
# SCF done       -157.780063244903          0.000436262793
! CAM-B3LYP def2-SVP def2/J RIJCOSX Grid4 TightSCF
%maxcore 5000
%tddft
    Mode sTDDFT
    Ethresh 5.0
    maxcore 5000
end

%pal
  nprocs 6
  end
* xyz 0 1
   C       -1.10559        -0.23767        -5.84821
   C       -0.11518        -1.08576        -6.15494
   C        0.70958        -1.08254        -7.33013
   C        1.63151        -2.06832        -7.36728
   C        1.61798        -2.92893        -6.23195
   S        0.37148        -2.42961        -5.10743
   C        2.43359        -4.00809        -5.99760
   C        3.47029        -4.51170        -6.82366
   C        4.09393        -5.60519        -6.31861
   C        3.60787        -6.03155        -5.05120
   S        2.28830        -4.99028        -4.54762
   C        4.04030        -7.14705        -4.38690
   C        3.68402        -7.60359        -3.10209
   S        3.73850        -9.33148        -2.81570
   C        3.19349        -9.13860        -1.18246
   C        3.01899        -7.79271        -0.87575
   C        3.31029        -6.92473        -1.94501
   S        3.43773        -5.16992        -1.81577
   C        3.74773        -4.98304        -0.01440
   C        2.38950        -5.03689         0.62425
   O        1.81283        -4.07365         1.05263
   C        1.74182        -6.41600         0.59259
   O        2.64812        -7.47757         0.39976
   C        2.94713       -10.20830        -0.29270
   S        2.38246        -9.87397         1.31976
   C        2.29599       -11.57168         1.69466
   C        2.72038       -12.34301         0.62562
   C        3.05756       -11.57402        -0.50981
   S        3.54659       -12.22114        -2.07439
   C        2.77182       -13.88371        -2.00351
   C        3.75645       -14.73732        -1.25524
   O        4.45061       -15.56948        -1.77462
   C        3.88731       -14.38572         0.22154
   O        2.78554       -13.69860         0.76638
   C        1.85614       -12.00572         2.97441
   S        2.14499       -10.97642         4.34941
   C        1.38704       -12.10167         5.44376
   C        0.93364       -13.21267         4.74285
   C        1.18804       -13.16095         3.35399
   S        0.66960       -14.35040         2.16652
   C       -0.52346       -15.41644         3.07998
   C       -1.55593       -14.56419         3.75763
   O       -2.58824       -14.21627         3.24910
   C       -1.15172       -14.15800         5.16767
   O        0.24528       -14.22579         5.36363
   C        1.34811       -11.76596         6.81444
   C        1.02609       -12.52033         7.91028
   C        1.07408       -12.01692         9.24297
   C        0.78071       -12.92607        10.20512
   C        0.47786       -14.21403         9.69589
   S        0.56808       -14.21216         7.94138
   C        0.14779       -15.34350        10.40267
   C        0.05032       -15.48820        11.81574
   C       -0.28587       -16.72951        12.22832
   C       -0.48453       -17.67493        11.16649
   S       -0.21470       -16.86681         9.61308
   C       -0.81787       -18.96803        11.27227
   H       -1.36815         0.56420        -6.51555
   H       -1.66528        -0.32825        -4.93558
   H        0.57238        -0.33769        -8.09391
   H        2.33080        -2.21506        -8.17120
   H        3.72055        -4.05244        -7.76301
   H        4.90233        -6.12457        -6.80242
   H        4.69556        -7.80800        -4.94070
   H        4.20378        -4.00305         0.11156
   H        4.41435        -5.77510         0.31985
   H        0.95898        -6.40920        -0.17922
   H        1.26344        -6.60255         1.55838
   H        2.66060       -14.21648        -3.03355
   H        1.80778       -13.80444        -1.50512
   H        4.82083       -13.82015         0.35643
   H        3.97078       -15.31475         0.79333
   H        0.02916       -16.03139         3.78790
   H       -0.97225       -16.01919         2.29189
   H       -1.58671       -14.87553         5.87192
   H       -1.54720       -13.16046         5.39989
   H        1.66607       -10.75242         7.02773
   H        1.33310       -10.99018         9.43438
   H        0.77387       -12.71137        11.25879
   H        0.23773       -14.65951        12.47546
   H       -0.40379       -17.02710        13.25521
   H       -0.97137       -19.41807        12.23716
   H       -0.94199       -19.59304        10.40716
*
