# ORCA input file
# SCF done       -183.499422134827          0.000417235258
! CAM-B3LYP def2-SVP def2/J RIJCOSX Grid4 TightSCF
%maxcore 5000
%tddft
    Mode sTDDFT
    Ethresh 5.0
    maxcore 5000
end

%pal
  nprocs 6
  end
* xyz 0 1
   C        6.76421        -2.64685        -0.14294
   C        7.72348        -3.45135         0.33386
   C        9.03862        -3.08461         0.77664
   C        9.78644        -4.11840         1.22027
   C        9.13074        -5.38128         1.16753
   S        7.51640        -5.20136         0.51559
   C        9.62988        -6.59628         1.57405
   C       10.89683        -6.87673         2.14112
   C       11.06971        -8.18114         2.47937
   C        9.95268        -9.01382         2.20754
   S        8.67684        -8.06715         1.46863
   C        9.88597       -10.35014         2.52109
   C        8.79950       -11.21399         2.34400
   S        7.35711       -10.62996         1.55620
   C        6.52624       -12.13013         1.72550
   C        7.34362       -13.07916         2.34759
   C        8.63905       -12.57211         2.71047
   C        9.53431       -13.49976         3.29863
   N       10.82919       -13.16603         3.82764
   O       10.95144       -12.13053         4.45184
   O       11.72101       -13.97175         3.65815
   C        9.18683       -14.82710         3.44184
   C        7.93063       -15.30059         3.05266
   C        7.01383       -14.43771         2.52059
   C        5.13851       -12.27612         1.36094
   C        4.25648       -12.81064         2.29213
   C        2.89440       -12.87275         2.05270
   C        2.34287       -12.44640         0.84958
   C        3.23270       -11.96700        -0.16448
   C        4.62587       -11.85490         0.09852
   C        5.43850       -11.37853        -0.94953
   C        4.86878       -11.01767        -2.14201
   C        3.48044       -11.14908        -2.28436
   N        2.70051       -11.60755        -1.34452
   C        0.93782       -12.46217         0.58935
   C       -0.02381       -12.44899         1.55366
   C       -1.40434       -12.45324         1.30095
   C       -2.34661       -12.22939         2.27683
   C       -3.75488       -12.23526         2.15094
   C       -4.42098       -11.90355         3.29476
   C       -3.57127       -11.59795         4.37951
   S       -1.90265       -11.80080         3.92397
   C       -3.91521       -11.12728         5.63846
   C       -5.19669       -10.89727         6.17258
   C       -5.17784       -10.34573         7.42372
   C       -3.88286       -10.10360         7.92735
   S       -2.68258       -10.64936         6.78486
   C       -3.55625        -9.48819         9.12555
   C       -2.24958        -9.20204         9.48941
   C       -1.78078        -8.52410        10.59912
   C       -0.42692        -7.93585        10.53827
   O        0.43134        -8.15610         9.70896
   C       -0.36057        -6.98279        11.66758
   C        0.62923        -6.10301        11.99185
   C        0.44558        -5.23927        13.09600
   C       -0.76569        -5.30968        13.84172
   C       -0.94845        -4.43787        14.93310
   C        0.02546        -3.53932        15.26855
   C        1.22267        -3.47166        14.53119
   C        1.43043        -4.30426        13.46733
   F        2.16201        -2.57830        14.88095
   F       -0.15276        -2.70879        16.30764
   C       -1.76902        -6.24297        13.48720
   C       -1.56773        -7.07015        12.41649
   C       -2.40284        -8.12065        11.82628
   C       -3.47401        -8.71277        12.45793
   C       -4.10070        -9.89602        12.02397
   N       -4.62253       -10.88207        11.74861
   C       -4.00823        -8.26552        13.68059
   N       -4.50030        -7.93548        14.66524
   H        6.93080        -1.58803        -0.23373
   H        5.80559        -3.02694        -0.44515
   H        9.36153        -2.05925         0.74482
   H       10.79155        -4.02553         1.59133
   H       11.63533        -6.11012         2.29079
   H       11.95875        -8.58115         2.93363
   H       10.76383       -10.73727         3.01397
   H        9.90772       -15.50220         3.87761
   H        7.69576       -16.34520         3.18011
   H        6.04282       -14.78446         2.20312
   H        4.63773       -13.12776         3.25165
   H        2.25054       -13.26860         2.82299
   H        6.50762       -11.31101        -0.81496
   H        5.46828       -10.65113        -2.96030
   H        2.99152       -10.87778        -3.21148
   H        0.65378       -12.40528        -0.45211
   H        0.26857       -12.38230         2.59436
   H       -1.75088       -12.62157         0.29014
   H       -4.23306       -12.48079         1.21906
   H       -5.49150       -11.85190         3.37935
   H       -6.09417       -11.13555         5.63040
   H       -6.05548       -10.09801         7.99357
   H       -4.38079        -9.18194         9.75140
   H       -1.47668        -9.43689         8.76195
   H        1.53839        -6.06082        11.41150
   H       -1.85890        -4.47808        15.51045
   H        2.35285        -4.24021        12.91157
   H       -2.67694        -6.26889        14.06813
*
