# ORCA input file
# SCF done       -189.593776966145          0.000365127936
! CAM-B3LYP def2-SVP def2/J RIJCOSX Grid4 TightSCF
%maxcore 5000
%tddft
    Mode sTDDFT
    Ethresh 5.0
    maxcore 5000
end

%pal
  nprocs 6
  end
* xyz 0 1
   C       -4.77213         1.15259        -0.34909
   S       -4.47020        -0.24537        -1.26020
   C       -4.83058        -1.30616         0.07981
   C       -5.21325        -0.54823         1.20281
   C       -5.16642         0.86098         0.94522
   C       -5.50911         1.77869         1.95713
   C       -5.90838         1.33589         3.19329
   C       -6.25320         2.29107         4.24615
   C       -6.83429         3.46421         4.03623
   C       -5.98810        -0.06772         3.44589
   C       -6.46557        -0.55952         4.77744
   C       -5.65532        -0.97097         2.46967
   C       -4.68524        -2.68675        -0.16283
   C       -4.69744        -3.68725         0.76275
   C       -4.58477        -5.08030         0.52056
   C       -4.45783        -5.73248        -0.73148
   C       -4.34037        -7.17624        -0.83172
   N       -4.30005        -7.73075        -2.05663
   C       -4.25149        -6.98207        -3.12586
   C       -4.29501        -5.55533        -3.01887
   N       -4.43345        -4.98844        -1.84400
   C       -4.21954        -4.74187        -4.17322
   N       -4.14699        -4.10804        -5.12588
   C       -4.13150        -7.61641        -4.38708
   N       -3.97703        -8.11184        -5.40891
   C       -4.28843        -8.02841         0.29296
   C       -4.42377        -7.37767         1.53841
   C       -4.57632        -5.94515         1.64148
   N       -4.68064        -5.54062         2.90814
   S       -4.58259        -6.81756         3.87484
   N       -4.40849        -7.94600         2.74997
   C       -4.08723        -9.46845         0.19510
   C       -3.46375       -10.04362        -0.91982
   C       -3.28404       -11.41228        -1.06114
   C       -3.66188       -12.22935         0.01148
   C       -4.26974       -11.67476         1.15234
   C       -4.50795       -10.31257         1.22497
   C       -4.55055       -12.67077         2.15685
   C       -4.10954       -13.94491         1.76923
   S       -3.38220       -13.94202         0.17739
   C       -4.26588       -15.05037         2.58767
   C       -4.87307       -14.87466         3.81656
   C       -5.31326       -13.61756         4.21891
   C       -5.15508       -12.51748         3.40024
   C       -2.72915       -11.94362        -2.30300
   C       -3.23781       -13.10644        -2.89565
   C       -2.66763       -13.67355        -4.09350
   N       -3.13400       -14.83277        -4.55224
   C       -4.16145       -15.41740        -3.97959
   C       -4.81787       -14.77446        -2.88022
   N       -4.34271       -13.67208        -2.36797
   C       -5.98948       -15.34240        -2.31852
   N       -6.92609       -15.83226        -1.87726
   C       -4.60780       -16.66417        -4.47070
   N       -4.99434       -17.67315        -4.85464
   C       -1.59689       -13.06086        -4.80712
   C       -1.18947       -11.81137        -4.27656
   C       -1.73997       -11.27575        -3.04542
   N       -1.21463       -10.08137        -2.75392
   S       -0.19296        -9.65372        -3.91408
   N       -0.32483       -10.96231        -4.82896
   C       -1.08280       -13.68269        -5.97091
   S       -2.07649       -14.85966        -6.78062
   C       -0.93201       -15.10871        -8.04200
   C        0.23369       -14.36273        -7.81516
   C        0.15713       -13.55230        -6.64223
   C        1.29088       -12.82593        -6.26400
   C        2.44288       -12.84354        -7.02466
   C        3.60002       -12.05688        -6.60574
   C        3.91144       -11.77381        -5.34699
   C        2.49633       -13.61229        -8.22120
   C        3.73980       -13.63832        -9.05632
   C        1.40905       -14.36108        -8.58727
   C       -1.18666       -16.01349        -9.11884
   C       -2.26886       -16.79038        -9.21249
   H       -4.65441         2.12295        -0.78979
   H       -5.43833         2.83516         1.74865
   H       -6.01256         1.99089         5.25696
   H       -7.12508         3.79138         3.05197
   H       -7.05857         4.13635         4.84659
   H       -5.75049        -0.30259         5.55929
   H       -6.58267        -1.64014         4.76681
   H       -7.42145        -0.10567         5.03470
   H       -5.75742        -2.02251         2.68034
   H       -4.51970        -2.95726        -1.19663
   H       -4.77346        -3.44961         1.81262
   H       -3.11101        -9.41159        -1.71417
   H       -5.00884        -9.90812         2.08768
   H       -3.92224       -16.02133         2.26692
   H       -5.00740       -15.72329         4.47007
   H       -5.78511       -13.50390         5.18342
   H       -5.49604       -11.54299         3.71502
   H        1.25750       -12.21662        -5.37941
   H        4.23889       -11.69452        -7.39938
   H        3.33221       -12.13780        -4.51506
   H        4.77420       -11.17893        -5.10062
   H        4.60454       -13.90899        -8.45243
   H        3.92699       -12.65837        -9.49547
   H        3.64108       -14.35885        -9.86441
   H        1.45549       -14.97165        -9.47665
   H       -0.43324       -16.04683        -9.89463
   H       -3.02978       -16.79021        -8.44979
   H       -2.41751       -17.45030       -10.04844
*
