# ORCA input file
# SCF done       -171.940242722114          0.000965475862
! CAM-B3LYP def2-SVP def2/J RIJCOSX Grid4 TightSCF
%maxcore 5000
%tddft
    Mode sTDDFT
    Ethresh 5.0
    maxcore 5000
end

%pal
  nprocs 6
  end
* xyz 0 1
   C        4.98573        -4.32152        -2.41818
   C        5.82835        -3.30207        -1.99087
   C        5.31992        -1.98630        -1.68687
   N        6.17863        -0.99565        -1.40903
   C        7.44203        -1.26749        -1.24529
   C        7.92471        -2.62402        -1.37412
   N        7.13853        -3.56957        -1.80047
   C        9.29038        -2.91057        -1.11460
   N       10.39474        -3.10654        -0.88636
   C        8.36567        -0.21420        -1.02496
   N        9.14743         0.60252        -0.84426
   C        3.93590        -1.69874        -1.73000
   C        3.09714        -2.72498        -2.18971
   C        3.63309        -4.03053        -2.53726
   N        2.66336        -4.87735        -2.90843
   S        1.25684        -4.13281        -2.81771
   N        1.76489        -2.70019        -2.31225
   C        3.51568        -0.42689        -1.20260
   N        4.18148         0.06572        -0.17750
   C        3.63071         1.27297         0.08536
   C        2.54200         1.56925        -0.85057
   C        1.96550         2.89262        -0.56163
   O        1.06394         3.46941        -1.13134
   C        2.76280         3.34829         0.59412
   C        3.76879         2.32385         0.95602
   N        4.51421         2.73772         2.01051
   C        4.04996         3.92229         2.31476
   C        2.95600         4.36802         1.46566
   C        2.45088         0.48208        -1.69377
   C        1.61929         0.26079        -2.81789
   C        0.70305         1.16580        -3.26228
   C       -0.12003         0.93264        -4.38431
   C       -0.99308         1.85802        -4.87949
   C       -1.81856         1.61670        -5.99562
   C       -2.64253         2.55661        -6.54924
   C       -3.48816         2.35263        -7.66327
   C       -3.76381         1.14566        -8.24250
   C       -4.61248         1.01794        -9.36120
   N       -5.15290         2.06650        -9.98020
   C       -5.87666         1.56737       -10.99131
   C       -5.81611         0.09601       -11.02900
   C       -6.61349        -0.42762       -12.15521
   O       -6.78532        -1.58194       -12.48012
   C       -7.13549         0.80008       -12.77546
   C       -6.66747         1.99219       -12.03730
   N       -7.14120         3.12347       -12.60579
   C       -7.85802         2.71839       -13.62999
   C       -7.89545         1.28174       -13.79437
   C       -5.00443        -0.27435        -9.98579
   C       -4.59435        -1.55309        -9.52518
   C       -5.01880        -2.72362       -10.06371
   C       -4.62033        -4.01117        -9.59627
   C       -5.17881        -5.16880       -10.19651
   C       -4.81697        -6.50095        -9.77661
   N       -5.37488        -7.57576       -10.37997
   C       -6.24137        -7.38182       -11.33310
   C       -6.61058        -6.04957       -11.74654
   N       -6.07831        -5.00199       -11.17886
   C       -7.56958        -5.88306       -12.77761
   N       -8.34573        -5.81339       -13.61673
   C       -6.83291        -8.50158       -11.97491
   N       -7.33504        -9.38077       -12.50942
   C       -3.90061        -6.71668        -8.75489
   C       -3.34312        -5.59861        -8.14818
   C       -3.69265        -4.25019        -8.55628
   N       -3.03081        -3.34121        -7.83266
   S       -2.08966        -4.09370        -6.77276
   N       -2.44848        -5.60182        -7.15052
   H        5.36827        -5.31309        -2.59239
   H        4.47339         4.47924         3.13238
   H        2.44473         5.30638         1.55101
   H        1.73225        -0.67925        -3.33810
   H        0.59242         2.11021        -2.74617
   H       -0.04128        -0.03103        -4.87469
   H       -1.05411         2.82622        -4.40039
   H       -1.76402         0.62930        -6.43476
   H       -2.63663         3.54995        -6.11959
   H       -3.97963         3.21674        -8.08947
   H       -3.34308         0.23704        -7.83816
   H       -8.35386         3.43534       -14.26111
   H       -8.42084         0.75372       -14.56518
   H       -3.91186        -1.58546        -8.68846
   H       -5.70999        -2.72422       -10.89693
   H       -3.64039        -7.71623        -8.45184
*
