# ORCA input file
# SCF done       -201.043255289677          0.000695428748
! CAM-B3LYP def2-SVP def2/J RIJCOSX Grid4 TightSCF
%maxcore 5000
%tddft
    Mode sTDDFT
    Ethresh 5.0
    maxcore 5000
end

%pal
  nprocs 6
  end
* xyz 0 1
   C        4.46325        -7.96071        -3.71682
   C        5.69838        -7.33075        -3.14192
   O        5.74401        -6.27044        -2.56445
   C        6.76412        -8.31201        -3.38454
   C        6.27165        -9.35688        -4.17310
   C        4.88830        -9.07888        -4.54071
   C        4.21539        -9.60385        -5.60579
   C        2.97367        -9.11386        -6.06740
   N        2.00923        -8.70648        -6.53698
   C        4.73051       -10.61869        -6.44117
   N        5.10797       -11.43587        -7.15213
   C        7.08954       -10.44326        -4.50818
   C        8.38518       -10.45399        -4.06035
   C        8.92090        -9.40428        -3.28106
   C        8.09588        -8.29803        -2.92307
   C        8.63218        -7.25575        -2.14083
   C        9.93756        -7.30525        -1.73306
   C       10.75508        -8.39105        -2.08375
   C       10.25933        -9.41839        -2.84008
   C        3.24217        -7.54150        -3.31405
   C        2.01254        -8.24539        -3.47296
   N        1.97348        -9.54854        -3.67922
   C        0.66403        -9.87944        -3.75225
   C       -0.19265        -8.71889        -3.58235
   C       -1.60987        -9.10349        -3.69074
   O       -2.59446        -8.39935        -3.59294
   C       -1.53437       -10.55358        -3.94041
   C       -0.12490       -10.99329        -3.96246
   N       -0.03927       -12.32169        -4.18732
   C       -1.28259       -12.72983        -4.31213
   C       -2.26601       -11.67511        -4.17007
   C        0.66361        -7.63764        -3.38399
   C        0.39002        -6.28456        -3.16690
   C       -0.90779        -5.80016        -3.11153
   C       -1.24764        -4.48282        -2.86782
   C       -2.55972        -3.95282        -2.80205
   C       -3.78449        -4.58586        -3.05015
   C       -4.93944        -3.84765        -2.96373
   C       -4.89736        -2.47780        -2.65802
   C       -3.70827        -1.83419        -2.40357
   C       -2.51495        -2.56439        -2.43918
   C       -1.16328        -2.17533        -2.22528
   C       -0.30964        -3.34890        -2.58312
   O        0.89740        -3.36889        -2.61809
   C       -0.58252        -1.02286        -1.73766
   C       -1.22254         0.02876        -1.09342
   C       -0.53445         1.15585        -0.65684
   N        0.77544         1.34966        -0.91724
   C        1.08986         2.51437        -0.36725
   C       -0.05729         3.12643         0.32798
   C        0.32790         4.41988         0.92238
   O       -0.34704         5.16933         1.60134
   C        1.72720         4.56335         0.50924
   C        2.16793         3.38275        -0.25640
   N        3.44639         3.51916        -0.65169
   C        3.82541         4.70057        -0.20122
   C        2.79653         5.40919         0.51675
   C       -1.11361         2.27090         0.13420
   C       -2.46642         2.37900         0.55988
   C       -2.90587         3.41768         1.30988
   C       -4.24971         3.57644         1.73318
   C       -4.76161         4.70367         2.29028
   C       -6.03673         4.67564         3.05904
   O       -6.87359         3.79963         3.01978
   C       -6.00306         5.89047         3.89181
   C       -4.88350         6.65656         3.55867
   C       -4.17851         6.02226         2.44880
   C       -3.30950         6.63259         1.58699
   C       -2.91193         6.07773         0.34936
   N       -2.64042         5.70697        -0.70189
   C       -2.81568         7.94302         1.75999
   N       -2.38767         9.00298         1.85868
   C       -4.60617         7.84821         4.24068
   C       -5.45957         8.25230         5.23409
   C       -6.60988         7.51093         5.58372
   C       -6.89872         6.29301         4.90233
   C       -8.04487         5.55369         5.25818
   C       -8.87427         6.00512         6.24766
   C       -8.59575         7.20521         6.92093
   C       -7.48907         7.94164         6.59795
   H        6.70524       -11.26112        -5.09548
   H        9.02873       -11.28624        -4.30623
   H        7.99573        -6.42639        -1.87587
   H       10.34867        -6.50523        -1.13604
   H       11.78211        -8.40946        -1.75081
   H       10.88713       -10.25430        -3.11223
   H        3.21681        -6.61346        -2.75335
   H       -1.49666       -13.76723        -4.50045
   H       -3.32859       -11.79963        -4.23843
   H        1.21409        -5.59820        -3.03528
   H       -1.71847        -6.50411        -3.25606
   H       -3.81241        -5.63171        -3.31407
   H       -5.89435        -4.31418        -3.15177
   H       -5.82167        -1.92010        -2.63124
   H       -3.70125        -0.77400        -2.20929
   H        0.49754        -0.95813        -1.80839
   H       -2.27645        -0.03987        -0.87241
   H        4.82808         5.04947        -0.37645
   H        2.89361         6.38226         0.95577
   H       -3.16540         1.61947         0.23491
   H       -2.19129         4.16550         1.62416
   H       -4.91389         2.72031         1.67889
   H       -3.73198         8.43024         3.99819
   H       -5.25783         9.16638         5.77378
   H       -8.24860         4.63302         4.73463
   H       -9.75298         5.43900         6.51852
   H       -9.26433         7.54293         7.69898
   H       -7.27260         8.86548         7.11472
*
