# ORCA input file
# SCF done       -190.010248820163          0.000678481707
! CAM-B3LYP def2-SVP def2/J RIJCOSX Grid4 TightSCF
%maxcore 5000
%tddft
    Mode sTDDFT
    Ethresh 5.0
    maxcore 5000
end

%pal
  nprocs 6
  end
* xyz 0 1
   C        5.19006        -6.72893         2.16545
   S        4.32178        -5.30898         2.52557
   C        4.56134        -7.52915         1.25189
   C        5.17445        -8.80062         0.76068
   C        6.29179        -8.50259        -0.25039
   N        6.66822        -9.73137        -0.92696
   C        3.33933        -6.97536         0.80271
   C        2.43499        -7.65404        -0.16907
   C        2.93587        -7.50800        -1.61552
   N        3.33793        -6.13345        -1.86279
   C        3.05418        -5.75160         1.40657
   C        1.94498        -4.89937         1.16451
   N        1.21883        -5.05411         0.06010
   C        0.28208        -4.09088         0.08145
   C        0.40371        -3.25304         1.27617
   C       -0.64160        -2.21771         1.27271
   O       -0.85465        -1.34589         2.09239
   C       -1.37257        -2.49310         0.02353
   C       -0.77639        -3.64170        -0.67477
   N       -1.44844        -3.91291        -1.81926
   C       -2.40904        -3.01739        -1.86872
   C       -2.42291        -2.10528        -0.74991
   C        1.45724        -3.76577         1.99868
   C        1.96312        -3.37108         3.26748
   C        1.53133        -2.26758         3.92224
   C        1.98994        -1.79934         5.19988
   C        1.36629        -0.69700         5.75299
   C        1.77035        -0.20367         7.00556
   C        1.29964         0.86317         7.76457
   C        0.17967         1.77489         7.39274
   C       -0.91267         1.81099         8.47332
   N       -1.20898         0.45846         8.91407
   C        0.69809         3.18871         7.06742
   N        1.37477         3.15413         5.78609
   C        2.11298         0.91850         8.95554
   C        2.11946         1.75736        10.00887
   C        3.10901         1.62781        11.11081
   C        4.00611         0.43083        11.01749
   C        4.00335        -0.38744         9.94603
   C        3.08853        -0.18371         8.88972
   C        2.86982        -0.85484         7.70201
   C        3.49967        -1.97389         7.11099
   C        3.06855        -2.42864         5.90729
   C        4.07671         2.78288        11.11225
   C        4.47431         3.42539        10.00272
   C        5.41527         4.49692        10.04558
   N        5.93894         4.92755        11.18473
   C        6.74453         5.95630        10.85417
   C        6.73086         6.20415         9.40590
   C        7.61065         7.32851         9.06918
   O        7.84032         7.81124         7.97747
   C        8.14453         7.72842        10.38405
   C        7.59100         6.86661        11.44416
   N        8.07615         7.22744        12.65748
   C        8.87820         8.23841        12.41696
   C        8.96817         8.60261        11.02081
   C        5.88218         5.26634         8.86785
   C        5.49901         5.02491         7.52258
   C        5.90789         5.78952         6.48164
   C        5.53835         5.55462         5.13272
   S        4.51288         4.20335         4.70029
   C        5.88961         6.28559         4.01148
   C        6.79145         7.47542         4.05145
   C        8.27118         7.05543         4.05062
   N        9.10181         8.23541         3.90553
   C        5.34395         5.74661         2.81681
   C        5.51880         6.32956         1.45020
   C        4.45022         7.39361         1.16555
   N        4.60357         7.88376        -0.19308
   C        4.58284         4.63787         3.04763
   H        6.12755        -6.90797         2.65562
   H        4.43012        -9.42412         0.26853
   H        5.59134        -9.36198         1.60068
   H        7.12940        -8.01042         0.27346
   H        5.91775        -7.80469        -1.00390
   H        7.07939       -10.38659        -0.26970
   H        7.35392        -9.54510        -1.64986
   H        1.44607        -7.20185        -0.10452
   H        2.36298        -8.71647         0.07391
   H        2.13118        -7.85833        -2.28313
   H        3.80855        -8.14699        -1.78239
   H        2.58244        -5.51642        -1.57436
   H        3.49635        -5.99004        -2.85458
   H       -3.09971        -3.00939        -2.69417
   H       -3.12592        -1.30950        -0.60080
   H        2.71264        -4.00739         3.71124
   H        0.76077        -1.66456         3.45985
   H        0.56490        -0.21495         5.21260
   H       -0.27145         1.39391         6.47157
   H       -1.78783         2.34213         8.06024
   H       -0.57076         2.37175         9.34659
   H       -1.49422        -0.11180         8.12463
   H       -1.96960         0.46295         9.58464
   H        1.33109         3.54936         7.89609
   H       -0.15339         3.86941         6.97286
   H        2.17656         2.53322         5.82195
   H        1.70411         4.07514         5.52170
   H        1.43917         2.59238        10.08899
   H        2.57376         1.62423        12.06917
   H        4.69460         0.28700        11.83525
   H        4.68258        -1.22623         9.89606
   H        4.31967        -2.45543         7.62371
   H        3.55488        -3.27953         5.45636
   H        4.51757         3.06339        12.05767
   H        4.07242         3.14977         9.03766
   H        9.39945         8.72112        13.22560
   H        9.56595         9.39700        10.61911
   H        4.85037         4.17979         7.32857
   H        6.55700         6.63436         6.66837
   H        6.61170         8.07411         4.94371
   H        6.60934         8.10771         3.18183
   H        8.43397         6.30205         3.25820
   H        8.50971         6.59053         5.00944
   H        9.04104         8.60741         2.96373
   H       10.07226         8.02239         4.10025
   H        5.42597         5.54688         0.69655
   H        6.50924         6.77703         1.35243
   H        4.51190         8.18690         1.93099
   H        3.46084         6.93423         1.24394
   H        5.48631         8.37412        -0.29517
   H        3.86022         8.53297        -0.42408
   H        4.05611         4.04242         2.32822
*
