# ORCA input file
# SCF done       -200.916874034358          0.000449821280
! CAM-B3LYP def2-SVP def2/J RIJCOSX Grid4 TightSCF
%maxcore 5000
%tddft
    Mode sTDDFT
    Ethresh 5.0
    maxcore 5000
end

%pal
  nprocs 6
  end
* xyz 0 1
   C       -3.74455        -4.16286        -5.01011
   C       -3.46962        -2.79565        -4.89205
   O       -2.15867        -2.44226        -4.90525
   C       -1.83080        -1.08195        -4.72619
   C       -4.52536        -1.90897        -4.76278
   C       -5.85351        -2.35204        -4.74521
   C       -6.11199        -3.72953        -4.87525
   C       -5.04632        -4.61409        -5.00668
   O       -7.38895        -4.22874        -4.84270
   C       -8.21108        -3.94780        -5.96776
   C       -7.79393        -4.74957        -7.19575
   C       -6.94238        -1.42624        -4.54963
   C       -6.89332        -0.10259        -4.82307
   C       -7.98739         0.77007        -4.57535
   N       -9.21309         0.31171        -4.35257
   C      -10.00995         1.39316        -4.28485
   C       -9.24179         2.63141        -4.48856
   C      -10.11871         3.80994        -4.41825
   O       -9.82312         4.97874        -4.54654
   C      -11.43868         3.20535        -4.15667
   C      -11.32716         1.73416        -4.08548
   N      -12.53406         1.17495        -3.82713
   C      -13.36515         2.18579        -3.72907
   C      -12.74793         3.47987        -3.91637
   C       -7.93361         2.25439        -4.63140
   C       -6.80323         3.11663        -4.77026
   C       -5.53802         2.80780        -4.41911
   C       -4.37861         3.65580        -4.53973
   C       -3.13302         3.09993        -4.33321
   C       -1.97186         3.88448        -4.45268
   C       -0.62840         3.56029        -4.30938
   C       -0.06059         2.20966        -4.02889
   C        0.72150         1.69997        -5.25596
   N        1.16784         0.32801        -5.05855
   C        0.78485         2.18192        -2.73860
   N        0.46321         0.98299        -1.98798
   C        0.11525         4.77800        -4.50923
   C        1.43191         5.04563        -4.43233
   C        1.97192         6.41079        -4.70512
   C        0.93785         7.45152        -4.97031
   C       -0.38009         7.17546        -5.01810
   C       -0.84402         5.85820        -4.79839
   C       -2.10681         5.30051        -4.76372
   C       -3.39543         5.84793        -4.96353
   C       -4.48733         5.04871        -4.86400
   C        2.90096         6.25950        -5.88391
   C        4.13323         5.74271        -5.79109
   C        4.97985         5.57012        -6.93049
   N        4.73060         6.15974        -8.08912
   C        5.73564         5.79435        -8.91017
   C        6.68320         4.89480        -8.23075
   C        7.76301         4.50199        -9.14655
   O        8.70657         3.76681        -8.93570
   C        7.41352         5.21800       -10.38640
   C        6.16993         5.99104       -10.19900
   N        5.83783         6.64680       -11.33794
   C        6.77766         6.33467       -12.19813
   C        7.79097         5.44566       -11.67155
   C        6.20370         4.73598        -6.95470
   C        6.65792         3.92860        -5.87087
   C        7.76240         3.15718        -5.93500
   C        8.24334         2.29489        -4.87915
   C        7.43446         1.74313        -3.86793
   O        6.06404         1.96593        -3.81779
   C        5.32199         1.15197        -4.69926
   C        7.99525         0.95567        -2.87954
   C        9.36025         0.68101        -2.83514
   C       10.16645         1.19772        -3.86564
   C        9.60418         1.97468        -4.86093
   O       11.52499         0.97303        -3.88610
   C       11.92196        -0.32997        -4.28558
   C       11.69664        -0.57735        -5.77319
   C        9.96151        -0.08518        -1.75052
   C        9.33966        -0.99039        -1.00504
   H       -2.91694        -4.84777        -5.10186
   H       -0.74457        -1.01411        -4.78638
   H       -2.16131        -0.72424        -3.74544
   H       -2.26873        -0.45919        -5.51336
   H       -4.33902        -0.85696        -4.62582
   H       -5.26035        -5.66788        -5.09512
   H       -8.19723        -2.87466        -6.19817
   H       -9.21797        -4.22817        -5.65074
   H       -6.78869        -4.47057        -7.50666
   H       -8.48265        -4.55292        -8.01251
   H       -7.80640        -5.81321        -6.97133
   H       -7.85726        -1.82430        -4.13080
   H       -6.01621         0.33505        -5.27623
   H      -14.40815         2.01226        -3.52721
   H      -13.25216         4.42497        -3.87027
   H       -7.04688         4.10431        -5.13801
   H       -5.33989         1.83647        -3.98436
   H       -3.04297         2.05293        -4.07917
   H       -0.88736         1.51615        -3.86011
   H        1.54773         2.39533        -5.47640
   H        0.04695         1.70837        -6.11599
   H        1.49850        -0.06312        -5.93369
   H        1.94233         0.29729        -4.40358
   H        0.52088         3.03882        -2.11153
   H        1.85751         2.27246        -2.98683
   H        0.66017         0.15520        -2.53957
   H        1.00149         0.93615        -1.13041
   H        2.16181         4.28609        -4.19362
   H        2.57818         6.71489        -3.83898
   H        1.30856         8.44881        -5.14979
   H       -1.09904         7.95667        -5.21646
   H       -3.49744         6.89846        -5.19180
   H       -5.47024         5.46856        -5.00564
   H        2.51859         6.54400        -6.85265
   H        4.52441         5.42186        -4.83446
   H        6.75182         6.73236       -13.19791
   H        8.63818         5.07380       -12.21329
   H        6.06885         3.94233        -4.96575
   H        8.37693         3.19367        -6.82582
   H        5.63545         1.29094        -5.73937
   H        4.28189         1.45837        -4.59330
   H        5.42031         0.09244        -4.43599
   H        7.34820         0.57708        -2.10274
   H       10.24696         2.37077        -5.63278
   H       11.39056        -1.08948        -3.69544
   H       12.98768        -0.37806        -4.04879
   H       10.63492        -0.53747        -6.00854
   H       12.08048        -1.55714        -6.04349
   H       12.21149         0.17881        -6.36027
   H       11.00909         0.12813        -1.57820
   H        8.30822        -1.25763        -1.16299
   H        9.84918        -1.51202        -0.21350
*
