# ORCA input file
# SCF done       -209.592212362993          0.000905651269
! CAM-B3LYP def2-SVP def2/J RIJCOSX Grid4 TightSCF
%maxcore 5000
%tddft
    Mode sTDDFT
    Ethresh 5.0
    maxcore 5000
end

%pal
  nprocs 6
  end
* xyz 0 1
   C       -4.00203        14.82167        -2.99083
   C       -4.81390        15.33575        -2.00595
   C       -4.95231        16.71204        -1.73176
   N       -5.12211        17.81197        -1.44746
   C       -5.61105        14.60447        -1.10604
   N       -6.27574        14.08325        -0.32384
   C       -3.12376        15.63150        -3.82765
   C       -2.37908        14.76343        -4.65961
   C       -1.45126        15.21349        -5.56646
   C       -1.24528        16.59351        -5.65698
   C       -1.99395        17.45565        -4.82253
   C       -2.93319        16.99788        -3.90529
   S       -1.58104        19.11820        -5.10554
   C       -0.43304        18.65285        -6.31279
   C       -0.35671        17.31737        -6.50115
   C       -2.77724        13.37092        -4.39802
   O       -2.34386        12.40305        -5.00796
   C       -3.80228        13.42667        -3.34849
   C       -4.58239        12.43814        -2.77963
   N       -4.55806        11.10906        -2.80479
   C       -5.53198        10.36406        -2.12620
   C       -6.40157        10.82559        -1.17650
   S       -7.43639         9.59507        -0.59574
   C       -6.71546         8.42965        -1.63273
   C       -5.70203         8.95642        -2.38329
   N       -4.94700         8.30599        -3.33820
   C       -4.26969         9.19446        -4.25812
   C       -3.56199        10.29185        -3.46948
   C       -4.67948         6.95518        -3.37980
   C       -4.85171         6.05299        -2.40143
   C       -4.54813         4.64268        -2.51646
   C       -3.97679         4.07936        -3.63032
   C       -3.70683         2.69595        -3.67174
   C       -3.13619         1.91128        -4.65823
   C       -2.58297         2.30898        -5.99115
   C       -3.58652         3.11039        -6.85604
   N       -3.51420         4.55511        -6.66630
   C       -1.23494         3.02666        -5.80148
   N       -0.48595         3.04242        -7.05002
   C       -3.10003         0.56100        -4.14666
   C       -2.62853        -0.57972        -4.67977
   C       -2.66460        -1.87349        -3.93494
   C       -3.34177        -1.79986        -2.60569
   C       -3.81460        -0.65205        -2.08656
   C       -3.69911         0.56300        -2.80412
   C       -4.05517         1.86468        -2.52422
   C       -4.64349         2.47216        -1.38875
   C       -4.87008         3.80832        -1.39084
   C       -1.23203        -2.36452        -3.84966
   C       -0.55435        -2.40057        -2.70489
   N        0.75755        -2.79589        -2.52991
   C        1.35095        -2.76213        -1.28414
   C        0.73526        -2.61421        -0.07286
   S        1.85536        -2.57715         1.23498
   C        3.17915        -2.78202         0.16838
   C        2.77679        -2.86715        -1.13166
   N        3.57566        -3.06453        -2.25460
   C        2.86671        -3.76807        -3.30346
   C        1.60939        -2.99696        -3.68651
   C        4.85592        -2.67237        -2.31598
   C        5.67431        -2.72217        -3.40862
   C        7.02403        -2.36851        -3.31555
   C        8.00433        -2.35733        -4.27698
   C        8.07847        -2.78042        -5.65296
   C        7.29766        -3.69049        -6.32986
   C        7.50266        -4.06439        -7.67456
   N        7.58897        -4.41805        -8.76451
   C        6.22819        -4.44519        -5.81899
   N        5.34818        -5.11347        -5.49692
   C        9.28611        -2.17745        -6.22530
   C       10.02741        -1.55786        -5.18891
   C        9.27815        -1.68654        -3.92704
   O        9.61118        -1.29703        -2.82612
   C       11.22777        -0.92839        -5.40735
   C       11.71940        -0.89482        -6.71628
   C       10.96411        -1.49701        -7.74827
   C        9.75222        -2.14143        -7.52503
   S       11.74949        -1.31942        -9.28706
   C       13.05835        -0.46310        -8.54735
   C       12.91955        -0.31126        -7.21253
   H       -0.90168        14.52089        -6.18503
   H       -3.47755        17.69984        -3.29684
   H        0.12219        19.42131        -6.81466
   H        0.30022        16.84570        -7.20953
   H       -5.39589        12.81303        -2.17575
   H       -6.49492        11.80655        -0.75286
   H       -7.10490         7.43426        -1.65459
   H       -4.99352         9.65289        -4.94543
   H       -3.54108         8.63246        -4.84141
   H       -2.95746        10.90973        -4.13505
   H       -2.91627         9.83439        -2.71024
   H       -4.26672         6.64712        -4.32986
   H       -5.22590         6.37165        -1.43976
   H       -3.72891         4.66422        -4.50027
   H       -2.36606         1.39123        -6.54606
   H       -4.59509         2.79504        -6.57711
   H       -3.42988         2.83050        -7.91054
   H       -4.32421         4.99249        -7.09200
   H       -2.69019         4.93336        -7.12231
   H       -0.64483         2.45400        -5.07959
   H       -1.41414         4.02255        -5.37100
   H       -0.96781         3.59625        -7.75004
   H        0.42875         3.45645        -6.90733
   H       -2.16669        -0.60607        -5.65792
   H       -3.21116        -2.60077        -4.55775
   H       -3.43740        -2.73583        -2.07482
   H       -4.29735        -0.64333        -1.11916
   H       -4.90238         1.86499        -0.53288
   H       -5.31519         4.28102        -0.52575
   H       -0.79195        -2.63220        -4.79739
   H       -1.04589        -2.09844        -1.79416
   H       -0.30606        -2.51527         0.15023
   H        4.17217        -2.84275         0.56419
   H        2.57908        -4.75338        -2.91700
   H        3.50383        -3.91948        -4.17196
   H        1.06020        -3.57759        -4.43096
   H        1.87977        -2.02803        -4.12981
   H        5.24734        -2.27175        -1.39013
   H        5.28736        -3.03478        -4.36031
   H        7.36511        -1.99964        -2.35209
   H       11.76936        -0.47299        -4.59272
   H        9.21544        -2.57585        -8.35139
   H       13.86267        -0.12118        -9.16935
   H       13.63268         0.19407        -6.58646
*
