# ORCA input file
# SCF done       -208.956019960732          0.001398368790
! CAM-B3LYP def2-SVP def2/J RIJCOSX Grid4 TightSCF
%maxcore 5000
%tddft
    Mode sTDDFT
    Ethresh 5.0
    maxcore 5000
end

%pal
  nprocs 6
  end
* xyz 0 1
   C        8.65402        13.59050         1.30614
   C        8.02524        14.55958         2.03754
   F        8.33067        15.85076         1.82576
   C        7.06219        14.25993         3.01167
   C        6.73902        12.95205         3.24357
   C        7.35618        11.91182         2.51815
   C        8.32904        12.23790         1.52732
   C        8.94621        11.21475         0.77214
   C        8.60033         9.90965         1.00119
   C        7.64542         9.58726         2.01069
   C        7.03148        10.55724         2.75100
   C        7.48037         8.12477         2.08219
   O        6.72826         7.48421         2.77731
   C        8.49429         7.57387         1.13343
   C        9.01854         8.67710         0.34473
   C        9.57961         8.58587        -0.89922
   C        9.70623         7.37668        -1.61352
   N        9.77043         6.42730        -2.25571
   C       10.00022         9.70221        -1.65366
   N       10.37462        10.57252        -2.30016
   C        8.84218         6.26957         1.17526
   C       10.01438         5.68048         0.58910
   C       11.28251         6.15750         0.68837
   C       12.18885         5.20505         0.06752
   C       13.57329         5.39799        -0.04119
   N       14.70609         5.56350        -0.11964
   C       11.47139         4.13907        -0.38937
   C       10.07717         4.38060        -0.10833
   C        9.00379         3.68323        -0.58480
   C        9.01280         2.39269        -1.31460
   C        7.82089         2.29561        -1.97155
   C        6.99886         3.43557        -1.62189
   C        7.68473         4.23386        -0.74863
   C        5.70711         3.66077        -2.12019
   N        4.64967         3.82975        -2.53190
   C        9.99678         1.36159        -1.28680
   C       10.86686         1.12174        -0.27989
   C       11.80115         0.03666        -0.28507
   N       12.48351        -0.17974         0.83043
   N       13.32594        -1.14365         0.98812
   C       13.59574        -2.04939         0.05863
   C       12.97472        -1.90107        -1.21764
   C       12.04912        -0.82279        -1.39840
   N       11.54243        -0.80537        -2.62855
   S       12.16561        -2.02901        -3.46765
   N       13.10368        -2.63911        -2.31656
   C       14.52332        -3.10432         0.33524
   C       15.23874        -3.79189        -0.60402
   C       16.18364        -4.64972         0.07439
   C       17.04924        -5.53826        -0.57955
   N       17.75986        -6.25156        -1.12972
   C       16.08522        -4.44642         1.42603
   C       15.02020        -3.50990         1.66331
   C       14.50733        -3.20326         2.89521
   C       15.18606        -3.45322         4.18404
   C       14.26782        -3.27260         5.17308
   C       13.00480        -2.88760         4.56810
   C       13.15801        -2.81583         3.21144
   C       11.82773        -2.64388         5.28848
   N       10.86921        -2.44512         5.88777
   C       16.58520        -3.71282         4.33119
   C       17.11247        -4.51496         5.28384
   C       18.50447        -4.77772         5.38629
   C       19.08237        -5.86112         5.97162
   C       20.51942        -5.84449         6.36300
   O       21.34978        -5.03184         6.02923
   C       20.68087        -6.99130         7.27773
   C       21.78101        -7.36998         7.99163
   C       21.70624        -8.51111         8.82120
   C       20.48209        -9.23761         8.90145
   C       20.41435       -10.37281         9.73231
   C       21.52122       -10.75461        10.43859
   C       22.73386       -10.05465        10.37200
   C       22.81653        -8.94912         9.57199
   F       21.45913       -11.83941        11.23052
   C       19.35839        -8.82500         8.14791
   C       19.45849        -7.72277         7.34253
   C       18.50508        -7.10794         6.42388
   C       17.39149        -7.71468         5.90029
   C       16.70355        -7.22798         4.77044
   N       16.16075        -6.89570         3.81436
   C       16.88772        -8.95196         6.35187
   N       16.42567        -9.94197         6.70311
   H        9.38715        13.85760         0.56119
   H        6.59820        15.06722         3.55573
   H        6.00076        12.69714         3.98877
   H        9.68333        11.48712         0.03320
   H        6.30300        10.29338         3.50302
   H        8.21798         5.62326         1.78584
   H       11.59845         7.06570         1.16914
   H       11.85482         3.31549        -0.95778
   H        7.49835         1.49170        -2.60675
   H        7.34969         5.17616        -0.36064
   H        9.97116         0.67144        -2.12105
   H       10.86974         1.71505         0.62364
   H       15.14537        -3.70758        -1.67001
   H       16.59103        -5.01089         2.18614
   H       14.42922        -3.34502         6.23256
   H       12.38047        -2.61897         2.50271
   H       17.24270        -3.27488         3.59087
   H       16.44968        -5.02297         5.97206
   H       19.18743        -4.02576         5.00486
   H       22.70003        -6.80774         7.92101
   H       19.49843       -10.93821         9.80520
   H       23.57364       -10.40325        10.95197
   H       23.73986        -8.39388         9.50384
   H       18.44284        -9.38918         8.23119
*
