# ORCA input file
# SCF done       -233.748056551472          0.000632331963
! CAM-B3LYP def2-SVP def2/J RIJCOSX Grid4 TightSCF
%maxcore 5000
%tddft
    Mode sTDDFT
    Ethresh 5.0
    maxcore 5000
end

%pal
  nprocs 6
  end
* xyz 0 1
   C       18.67432         9.69256       -10.91637
   C       19.18663        10.71143       -11.67042
   F       20.40255        11.20765       -11.37513
   C       18.49159        11.26926       -12.75197
   C       17.25538        10.77780       -13.06776
   C       16.67925         9.72774       -12.32411
   C       17.40105         9.17643       -11.22572
   C       16.83808         8.13158       -10.45543
   C       15.59666         7.65538       -10.77749
   C       14.88918         8.19528       -11.88993
   C       15.40471         9.20819       -12.64523
   C       13.60767         7.47955       -12.04277
   O       12.72768         7.69194       -12.84751
   C       13.63891         6.39517       -11.02636
   C       14.75961         6.63429       -10.14920
   C       14.89357         6.20635        -8.85112
   C       13.92228         5.44500        -8.17383
   N       13.13779         4.86262        -7.57023
   C       15.96832         6.56444        -8.01326
   N       16.82688         6.81646        -7.29386
   C       12.71192         5.39250       -11.10377
   C       12.74621         4.10538       -10.53972
   S       11.24013         3.18959       -10.42237
   C       12.06200         1.88192        -9.71071
   C       13.45707         2.11512        -9.61073
   C       13.82811         3.36720       -10.06950
   C       14.10591         0.97093        -8.98543
   S       15.69726         0.77800        -8.68501
   C       13.01331         0.05572        -8.69072
   C       11.80445         0.61836        -9.13916
   O       10.77075        -0.17581        -8.86586
   C       11.28620        -1.26776        -8.22229
   C       12.67318        -1.16173        -8.10083
   C       10.42768        -2.28743        -7.73336
   C        9.08525        -2.28433        -7.90705
   C        8.14233        -3.22030        -7.36332
   C        6.81092        -3.10004        -7.71121
   C        5.84357        -3.94688        -7.14260
   C        4.46272        -4.00475        -7.30820
   C        3.66682        -3.14081        -8.22971
   C        3.15993        -3.91354        -9.46831
   N        2.43006        -5.11968        -9.11052
   C        2.51996        -2.41291        -7.50938
   N        3.07663        -1.56455        -6.47022
   C        3.97953        -5.02115        -6.40030
   C        2.73970        -5.48066        -6.13342
   C        2.48835        -6.46763        -5.05004
   C        3.72457        -7.05022        -4.43029
   C        4.95904        -6.62083        -4.74541
   C        5.13971        -5.58570        -5.69409
   C        6.26424        -4.93852        -6.16384
   C        7.63725        -5.06755        -5.85036
   C        8.53910        -4.24153        -6.43596
   C        1.54966        -7.57606        -5.44086
   C        1.32108        -7.96415        -6.69841
   C        0.44044        -9.03342        -7.06877
   S        0.39137        -9.54015        -8.74855
   C       -0.77903       -10.72789        -8.38086
   C       -1.12400       -10.72464        -7.01577
   C       -0.42678        -9.76510        -6.28243
   C       -2.13561       -11.74178        -6.75438
   S       -2.83887       -12.09116        -5.32305
   C       -2.37003       -12.35704        -8.04998
   C       -1.54396       -11.74069        -9.00952
   O       -1.71180       -12.27347       -10.21018
   C       -2.66121       -13.25655       -10.06945
   C       -3.08736       -13.33210        -8.73921
   C       -3.09107       -14.05761       -11.15071
   C       -2.65623       -14.04055       -12.44250
   C       -1.74712       -13.11582       -12.99925
   C       -1.13992       -13.20938       -14.21988
   C       -0.56783       -12.00140       -14.86597
   O       -0.35447       -10.92912       -14.34397
   C       -0.37120       -12.37512       -16.28143
   C        0.03255       -11.59830       -17.32832
   C        0.12446       -12.17018       -18.61738
   C       -0.21245       -13.54324       -18.79716
   C       -0.12466       -14.10586       -20.08522
   C        0.28412       -13.32659       -21.13147
   C        0.62135       -11.97540       -20.97522
   C        0.53969       -11.41294       -19.73174
   F        0.37050       -13.86266       -22.36275
   C       -0.62236       -14.32652       -17.69272
   C       -0.69381       -13.75272       -16.45274
   C       -1.03679       -14.31180       -15.14668
   C       -1.03544       -15.64702       -14.83016
   C       -1.05106       -16.14231       -13.50961
   N       -1.00003       -16.59575       -12.45613
   C       -0.89576       -16.67787       -15.78113
   N       -0.81107       -17.55452       -16.51780
   H       19.23590         9.29004       -10.08769
   H       18.94597        12.07230       -13.31041
   H       16.70061        11.19115       -13.89679
   H       17.40907         7.72893        -9.63368
   H       14.84704         9.61033       -13.47791
   H       11.86353         5.61168       -11.74552
   H       14.84249         3.72209       -10.10247
   H       13.32045        -1.87815        -7.63806
   H       10.92989        -3.07077        -7.18652
   H        8.66001        -1.48217        -8.49719
   H        6.51019        -2.33487        -8.41243
   H        4.33342        -2.35723        -8.60248
   H        4.02910        -4.12392       -10.11226
   H        2.48133        -3.25964       -10.02182
   H        3.08703        -5.83819        -8.82275
   H        1.92261        -5.47049        -9.91532
   H        1.78477        -3.14185        -7.14221
   H        2.01371        -1.76067        -8.22714
   H        3.56550        -2.12710        -5.78125
   H        2.34426        -1.04737        -5.99760
   H        1.87439        -5.14009        -6.68144
   H        1.97450        -5.90039        -4.25174
   H        3.56922        -7.83331        -3.70443
   H        5.82886        -7.05561        -4.27479
   H        7.95213        -5.81773        -5.13980
   H        9.58412        -4.33329        -6.18668
   H        1.08506        -8.09587        -4.61577
   H        1.81363        -7.45788        -7.51691
   H       -0.55750        -9.60729        -5.22826
   H       -3.81876       -14.01300        -8.35486
   H       -3.82545       -14.79970       -10.87115
   H       -3.06761       -14.79035       -13.10468
   H       -1.56589       -12.19210       -12.46329
   H        0.28037       -10.55843       -17.17604
   H       -0.37339       -15.14391       -20.24160
   H        0.93729       -11.41005       -21.83758
   H        0.79416       -10.37375       -19.58658
   H       -0.87746       -15.36125       -17.85849
*
