# ORCA input file
# SCF done       -222.784418489394          0.000741246296
! CAM-B3LYP def2-SVP def2/J RIJCOSX Grid4 TightSCF
%maxcore 5000
%tddft
    Mode sTDDFT
    Ethresh 5.0
    maxcore 5000
end

%pal
  nprocs 6
  end
* xyz 0 1
   C       -1.10724         2.38909        -4.35093
   C       -1.39030         2.35765        -3.01110
   C       -0.66355         1.59517        -2.07517
   N       -0.08519         1.01133        -1.27385
   C       -2.50647         3.00868        -2.44520
   N       -3.43621         3.48225        -1.96684
   C       -0.18419         1.50027        -5.04585
   C       -0.55138         1.45730        -6.42348
   C        0.11256         0.66686        -7.31674
   C        1.19773        -0.11940        -6.86782
   C        1.57843        -0.06858        -5.49532
   C        0.86780         0.75290        -4.59017
   C        2.66676        -0.85340        -5.06326
   C        3.34609        -1.65280        -5.94176
   C        2.97011        -1.70304        -7.29237
   C        1.91868        -0.95317        -7.74528
   C       -1.68075         2.37489        -6.65838
   O       -2.29316         2.56396        -7.68286
   C       -1.86793         3.09414        -5.36229
   C       -2.53723         4.27405        -5.35089
   C       -2.49520         5.33541        -4.40873
   S       -1.21967         5.53640        -3.22684
   C       -1.85600         7.04194        -2.69002
   C       -3.03603         7.36919        -3.38313
   C       -3.35516         6.40263        -4.36572
   C       -3.90061         8.47021        -3.03090
   O       -3.78081         9.25411        -2.11477
   C       -5.14848         8.64493        -3.94900
   F       -4.80277         8.79486        -5.24291
   F       -5.99720         7.60803        -3.89303
   F       -5.83544         9.73381        -3.60785
   C       -1.14145         7.77633        -1.68306
   C       -1.04425         9.14811        -1.75181
   C       -0.34401         9.85472        -0.75914
   C       -0.15923        11.21827        -0.56495
   C       -0.73140        12.35092        -1.34459
   C       -0.16518        12.39549        -2.77354
   N        1.27379        12.59322        -2.71711
   C       -2.27297        12.29389        -1.34553
   N       -2.74863        12.47720         0.01393
   C        0.65617        11.35621         0.61809
   C        1.17294        12.44727         1.21025
   C        2.04151        12.34440         2.41634
   C        2.19758        10.95323         2.95360
   C        1.67993         9.87180         2.34250
   C        0.92729        10.01347         1.15203
   C        0.31606         9.10963         0.30816
   C        0.23965         7.69661         0.32095
   C       -0.46499         7.05509        -0.64312
   C        1.51832        13.25184         3.49470
   C        2.24789        14.20645         4.07895
   C        1.77674        15.09217         5.10077
   S        0.15191        15.09936         5.68209
   C        0.46989        16.44016         6.76552
   C        1.81113        16.81083         6.68396
   C        2.52207        16.06230         5.73770
   C        2.60676        17.77875         7.48832
   O        3.57121        18.35339         7.04895
   C        2.53241        17.55973         9.03058
   F        2.80149        18.65814         9.73170
   F        1.36393        17.07979         9.49185
   F        3.45602        16.63832         9.36391
   C       -0.66319        16.92250         7.45591
   C       -0.84437        18.11647         8.09480
   C       -2.06260        18.54855         8.76403
   C       -3.14018        17.77079         9.09151
   C       -4.28939        18.25857         9.75072
   N       -5.25135        18.59460        10.27843
   C       -3.26243        16.38790         8.83643
   N       -3.43484        15.26535         8.66891
   C       -1.91351        19.96616         9.07179
   C       -0.62261        20.38850         8.63827
   C        0.08892        19.24815         8.06455
   O        1.23368        19.28308         7.62417
   C       -0.17950        21.67054         8.80532
   C       -1.02964        22.61144         9.42573
   C       -2.32584        22.20253         9.85668
   C       -2.75295        20.86619         9.67194
   C       -3.16573        23.15178        10.47230
   C       -2.74706        24.44223        10.65667
   C       -1.47080        24.84273        10.23425
   C       -0.62962        23.94662         9.63170
   H       -0.18586         0.64053        -8.35421
   H        1.18002         0.78109        -3.55766
   H        2.95030        -0.81399        -4.02176
   H        4.17706        -2.25173        -5.60045
   H        3.51776        -2.33846        -7.97210
   H        1.62461        -0.98792        -8.78410
   H       -3.11909         4.48228        -6.24413
   H       -4.21038         6.45069        -5.01424
   H       -1.47177         9.67312        -2.58922
   H       -0.45530        13.28551        -0.84603
   H       -0.69396        13.18482        -3.33497
   H       -0.34518        11.44532        -3.27920
   H        1.48762        13.50665        -2.32999
   H        1.67425        12.55086        -3.64738
   H       -2.61413        11.35092        -1.79541
   H       -2.66021        13.12136        -1.94723
   H       -2.47254        11.68185         0.58195
   H       -3.76123        12.52548         0.02489
   H        0.98878        13.44523         0.83827
   H        3.04048        12.70974         2.12922
   H        2.76951        10.86520         3.86436
   H        1.83486         8.88393         2.75105
   H        0.73933         7.14199         1.10083
   H       -0.54911         5.97799        -0.63955
   H        0.49395        13.08022         3.79599
   H        3.27779        14.36498         3.78452
   H        3.56571        16.23455         5.54298
   H       -1.51522        16.25605         7.40266
   H        0.80738        21.95572         8.47303
   H       -3.73817        20.59038        10.01256
   H       -4.14701        22.83965        10.79802
   H       -3.39813        25.16132        11.13044
   H       -1.15720        25.86412        10.38856
   H        0.35461        24.24754         9.30456
*
