# ORCA input file
# SCF done       -215.400349629024          0.000691298878
! CAM-B3LYP def2-SVP def2/J RIJCOSX Grid4 TightSCF
%maxcore 5000
%tddft
    Mode sTDDFT
    Ethresh 5.0
    maxcore 5000
end

%pal
  nprocs 6
  end
* xyz 0 1
   C       -5.49917         4.63569        -0.27166
   C       -6.15941         5.34990         0.71720
   C       -6.47215         4.76580         1.93663
   C       -6.12318         3.45124         2.20819
   C       -5.45972         2.73032         1.22968
   C       -5.15261         3.31779        -0.01845
   C       -4.49338         2.32508        -0.85648
   C       -3.92046         2.55933        -2.07762
   C       -3.88865         3.82339        -2.70543
   N       -3.82507         4.81851        -3.27349
   C       -3.24380         1.60417        -2.86564
   N       -2.67676         0.88407        -3.55760
   C       -4.56721         1.05509        -0.13915
   C       -4.95602         1.36562         1.23195
   C       -4.65143         0.64060         2.35258
   C       -3.92989        -0.56999         2.34351
   N       -3.31817        -1.54031         2.39237
   C       -4.93308         1.07039         3.66741
   N       -5.12823         1.36936         4.75749
   C       -4.39953        -0.16412        -0.73658
   C       -4.82623        -1.42886        -0.28354
   C       -5.79244        -1.76529         0.65798
   C       -5.96153        -3.13663         0.77044
   C       -5.12292        -3.86659        -0.10121
   S       -4.14514        -2.85813        -1.05817
   C       -5.37793        -5.24214         0.08709
   C       -6.36818        -5.39367         1.07780
   C       -6.75733        -4.07154         1.54702
   C       -7.66072        -3.76038         2.52031
   C       -8.38386        -4.74802         3.22161
   N       -8.97589        -5.55306         3.78304
   C       -7.92163        -2.41923         2.87322
   N       -8.12372        -1.32257         3.14031
   C       -6.70763        -6.72414         1.30996
   C       -5.98956        -7.58874         0.49594
   S       -4.86524        -6.73826        -0.55246
   C       -6.10634        -8.99630         0.38916
   C       -6.93621        -9.85223         1.09755
   C       -6.83012       -11.16819         0.65113
   C       -5.90565       -11.31364        -0.40713
   S       -5.16149        -9.83936        -0.83294
   C       -5.91450       -12.64801        -0.84374
   C       -6.84957       -13.37269        -0.06634
   C       -7.43572       -12.46161         0.91217
   C       -8.36649       -12.76719         1.86164
   C       -8.88466       -14.07114         2.00596
   N       -9.30646       -15.13123         2.11870
   C       -8.87016       -11.80033         2.75754
   N       -9.27887       -11.01459         3.48517
   C       -6.98349       -14.68490        -0.47821
   C       -6.17176       -14.98376        -1.58243
   S       -5.19694       -13.59640        -2.06706
   C       -6.17936       -16.18100        -2.30059
   C       -5.49114       -16.45525        -3.46369
   C       -5.66156       -17.59249        -4.28727
   C       -4.95304       -17.54978        -5.45394
   C       -4.15713       -16.39498        -5.58876
   S       -4.33137       -15.36544        -4.19433
   C       -3.35323       -16.00369        -6.65248
   C       -3.25948       -16.58185        -7.93304
   C       -2.47209       -15.87411        -8.79787
   C       -1.89301       -14.71685        -8.23222
   S       -2.34412       -14.58598        -6.54958
   C       -1.04048       -13.78245        -8.79532
   C       -0.72379       -13.59926       -10.13993
   C       -1.37222       -13.95105       -11.30813
   C       -0.57902       -13.94636       -12.56198
   O        0.55950       -13.55392       -12.69809
   C       -1.45157       -14.55277       -13.58858
   C       -1.17680       -14.83450       -14.89442
   C       -2.18216       -15.42216       -15.69614
   C       -3.45101       -15.71558       -15.11918
   C       -4.44957       -16.30187       -15.92162
   C       -4.20197       -16.57839       -17.23708
   C       -2.94779       -16.28556       -17.80729
   C       -1.95722       -15.72027       -17.05364
   F       -2.73244       -16.56724       -19.10034
   F       -5.15526       -17.13292       -17.99917
   C       -3.70598       -15.40817       -13.76206
   C       -2.72286       -14.82519       -13.00980
   C       -2.71587       -14.34375       -11.62639
   C       -3.85374       -14.12460       -10.88120
   C       -3.89738       -13.37623        -9.69266
   N       -4.01700       -12.73354        -8.74780
   C       -5.14044       -14.55357       -11.25528
   N       -6.20894       -14.91289       -11.47769
   H       -5.27306         5.10354        -1.21558
   H       -6.43860         6.37527         0.52899
   H       -6.99666         5.33941         2.68519
   H       -6.38086         3.00286         3.15391
   H       -3.94200        -0.17405        -1.71707
   H       -6.37197        -1.03468         1.19237
   H       -7.44305        -7.05753         2.01866
   H       -7.58663        -9.52058         1.88580
   H       -7.64500       -15.41055        -0.04049
   H       -6.84975       -16.94902        -1.93675
   H       -6.32305       -18.39327        -4.00795
   H       -4.98025       -18.31655        -6.20667
   H       -3.78876       -17.48011        -8.19649
   H       -2.26504       -16.17800        -9.80817
   H       -0.52380       -13.13722        -8.09618
   H        0.22182       -13.09581       -10.32717
   H       -0.20861       -14.60650       -15.31337
   H       -5.41723       -16.52815       -15.50165
   H       -1.00232       -15.50134       -17.50520
   H       -4.67589       -15.64349       -13.35434
*
