# ORCA input file
# SCF done       -172.612665998884          0.000218293011
! CAM-B3LYP def2-SVP def2/J RIJCOSX Grid4 TightSCF
%maxcore 5000
%tddft
    Mode sTDDFT
    Ethresh 5.0
    maxcore 5000
end

%pal
  nprocs 6
  end
* xyz 0 1
   C        5.85657        -0.12666        -4.40118
   C        6.38492         1.07625        -4.78806
   C        5.91183         2.27110        -4.24467
   C        4.89803         2.30630        -3.30074
   C        4.33346         1.06066        -2.88550
   C        4.82534        -0.14904        -3.44512
   N        4.30829        -1.33757        -3.06458
   C        3.35034        -1.35724        -2.17690
   C        2.85146        -0.14543        -1.61425
   N        3.34430         1.01116        -1.97317
   C        1.75631        -0.14065        -0.60115
   C        2.80228        -2.68630        -1.77682
   C        4.43920         3.55943        -2.76379
   C        3.44505         3.78649        -1.84172
   C        3.27404         5.14250        -1.55295
   C        4.16010         5.97427        -2.27264
   S        5.19023         5.07494        -3.29461
   C        3.91183         7.31544        -1.91577
   C        2.86609         7.33338        -0.96861
   C        2.43577         5.96061        -0.71468
   C        1.44707         5.55084         0.13879
   C        0.67863         6.44123         0.91509
   N        0.03374         7.13799         1.56029
   C        1.11209         4.19447         0.31480
   N        0.81481         3.09828         0.48395
   C        2.52896         8.60052        -0.53716
   C        3.30328         9.59884        -1.13839
   S        4.47358         8.89715        -2.26531
   C        3.26754        10.98805        -0.97154
   C        2.41801        11.69751        -0.14604
   C        2.36901        13.10030         0.02786
   C        1.41618        13.53417         0.91139
   C        0.66277        12.49484         1.48175
   S        1.20217        10.95283         0.86463
   C       -0.38230        12.47066         2.39609
   C       -1.07232        13.48300         3.08615
   C       -2.06390        13.00893         3.90209
   C       -2.20540        11.60145         3.89612
   S       -1.02464        10.90130         2.81611
   C       -3.11015        10.83192         4.59693
   C       -3.21428         9.43756         4.55117
   C       -4.14343         8.65579         5.25205
   C       -3.99576         7.30535         4.99397
   C       -2.94447         7.02991         4.08841
   S       -2.14734         8.43863         3.56033
   C       -2.87280         5.63635         3.89046
   C       -3.87508         5.01822         4.66499
   C       -4.61077         6.03791         5.37896
   C       -5.66302         5.85566         6.23241
   C       -6.17779         4.57765         6.52727
   N       -6.60988         3.54446         6.77780
   C       -6.30426         6.93442         6.87249
   N       -6.82964         7.81016         7.39574
   C       -3.87921         3.62793         4.53184
   C       -2.90158         3.17601         3.67315
   S       -1.94656         4.50878         3.00741
   C       -2.59664         1.82244         3.29014
   C       -1.55748         1.55640         2.41286
   C       -1.22765         0.25907         2.01942
   C       -1.93026        -0.81685         2.49288
   C       -2.99653        -0.60344         3.38512
   C       -3.34308         0.71255         3.79385
   N       -4.36948         0.88949         4.64752
   C       -5.03151        -0.14809         5.08900
   C       -4.67809        -1.46729         4.67689
   N       -3.68764        -1.66737         3.84916
   C       -5.42103        -2.66370         5.17087
   C       -6.15930         0.10452         6.03145
   H        6.20336        -1.06465        -4.80409
   H        7.17708         1.11204        -5.52106
   H        6.35236         3.20230        -4.57284
   H        2.05777        -0.70586         0.28027
   H        0.86245        -0.60872        -1.01227
   H        1.52713         0.88205        -0.31205
   H        3.32353        -3.46852        -2.32087
   H        1.73745        -2.73947        -1.99890
   H        2.93092        -2.84256        -0.70676
   H        2.88302         2.97867        -1.41215
   H        1.75714         8.79149         0.18178
   H        3.97641        11.56545        -1.55049
   H        3.03802        13.75323        -0.50506
   H        1.24462        14.56704         1.15776
   H       -0.82952        14.52424         2.96848
   H       -2.69845        13.63298         4.50682
   H       -3.81030        11.34739         5.24121
   H       -4.87811         9.08607         5.90881
   H       -4.55010         2.94916         5.02428
   H       -0.97608         2.37548         2.01366
   H       -0.40626         0.12115         1.33401
   H       -1.69767        -1.83047         2.20714
   H       -6.47112        -2.60007         4.88928
   H       -5.36740        -2.72138         6.25700
   H       -4.98587        -3.56066         4.73969
   H       -6.26120         1.17112         6.21287
   H       -5.98092        -0.40378         6.97804
   H       -7.09054        -0.27899         5.61688
*
