# ORCA input file
# SCF done       -245.370104844629          0.000841646627
! CAM-B3LYP def2-SVP def2/J RIJCOSX Grid4 TightSCF
%maxcore 5000
%tddft
    Mode sTDDFT
    Ethresh 5.0
    maxcore 5000
end

%pal
  nprocs 6
  end
* xyz 0 1
   C        0.83543         3.89269         0.57758
   C        0.93833         2.94746        -0.41076
   C        2.15600         2.56087        -1.00834
   N        3.11347         2.21272        -1.53732
   C       -0.13716         2.20373        -0.94028
   N       -0.95586         1.54684        -1.40670
   C        1.95312         4.58566         1.20565
   C        1.45663         5.35632         2.28428
   C        2.26697         6.12694         3.08185
   C        3.63656         6.14000         2.79863
   C        4.12434         5.37085         1.71487
   C        3.30393         4.58947         0.91054
   S        5.84423         5.53987         1.53508
   C        5.88443         6.62415         2.90019
   C        4.67363         6.84990         3.46317
  Br        7.51996         7.35825         3.45015
   C       -0.00793         5.19750         2.37605
   O       -0.73135         5.74123         3.18274
   C       -0.38296         4.31857         1.24240
   C       -1.64355         4.10199         0.75456
   C       -2.88943         4.39978         1.33844
   C       -3.26065         4.65510         2.65256
   C       -4.62082         4.90062         2.77411
   C       -5.31049         4.83887         1.54222
   S       -4.28707         4.43134         0.24982
   C       -6.66554         5.18205         1.76958
   C       -6.83760         5.45231         3.13629
   C       -5.56721         5.25833         3.81838
   C       -5.32532         5.37454         5.15509
   C       -4.06332         5.11466         5.73271
   N       -3.05663         4.88611         6.23085
   C       -6.33992         5.74040         6.06509
   N       -7.16335         6.04170         6.80399
   C       -8.13883         5.84881         3.45051
   C       -8.95896         5.88906         2.34062
   S       -8.10873         5.40506         0.88288
   C      -10.33269         6.32030         2.26811
   C      -11.07475         6.17133         1.09076
   C      -12.36480         6.64159         0.99886
   C      -12.96353         7.29119         2.08033
   C      -12.22871         7.43201         3.25987
   C      -10.94499         6.94781         3.36015
   C      -14.29121         7.90334         1.97323
   C      -14.39081         9.25621         2.55223
   C      -15.44139         9.59873         3.40082
   C      -15.51904        10.86794         3.94155
   C      -14.55059        11.81302         3.64515
   C      -13.49407        11.47737         2.81492
   C      -13.40925        10.20660         2.27813
   C      -15.35321         7.30042         1.38736
   C      -15.35641         5.88525         0.99241
   C      -14.81678         4.90262         1.82124
   C      -14.84292         3.57468         1.44089
   C      -15.40852         3.20563         0.23104
   C      -15.95969         4.17268        -0.59331
   C      -15.94112         5.50143        -0.21381
   C      -16.59475         8.04533         1.13564
   C      -16.55927         9.30611         0.53746
   C      -17.71186        10.03260         0.34874
   C      -18.94967         9.52579         0.76311
   C      -18.98760         8.24429         1.32167
   C      -17.83374         7.51149         1.49094
   C      -20.14576        10.32382         0.64809
   C      -20.32374        11.48763        -0.07082
   C      -21.59941        12.02913         0.10375
   C      -22.40205        11.26849         0.96846
   S      -21.58775         9.88449         1.54770
   C      -23.65313        11.92007         1.11909
   C      -23.63560        13.09420         0.33889
   C      -22.34634        13.20049        -0.32217
   C      -21.92364        14.21595        -1.12920
   C      -20.63701        14.23032        -1.70639
   N      -19.59089        14.23336        -2.17572
   C      -22.75842        15.31317        -1.42817
   N      -23.44824        16.19877        -1.66267
   C      -24.79378        13.84719         0.46650
   C      -25.70285        13.27045         1.34222
   S      -25.10920        11.73755         1.97761
   C      -26.97622        13.73728         1.72853
   C      -27.48171        14.99959         1.63143
   C      -26.88075        16.29423         1.38825
   C      -25.61663        16.69766         1.73496
   C      -25.14809        18.02105         1.59583
   N      -24.71830        19.08135         1.50904
   C      -24.66617        15.87131         2.36446
   N      -23.86908        15.24959         2.90941
   C      -27.95127        17.19460         0.97117
   C      -29.19714        16.55515         1.19275
   C      -28.95804        15.18712         1.69190
   O      -29.77622        14.36542         2.03589
   C      -30.39725        17.17372         0.93881
   C      -30.36486        18.47644         0.42962
   C      -29.11452        19.09655         0.19096
   C      -27.90019        18.47547         0.45672
   S      -29.30722        20.69724        -0.45435
   C      -31.04049        20.51848        -0.39022
   C      -31.45601        19.32109         0.08702
  Br      -32.13746        21.92865        -0.95927
   H        1.85643         6.70024         3.89815
   H        3.72280         4.02618         0.09357
   H        4.51586         7.49101         4.31114
   H       -1.71611         3.68056        -0.24166
   H       -2.55890         4.66346         3.46515
   H       -8.46850         6.09518         4.44243
   H      -10.62074         5.68798         0.23714
   H      -12.91174         6.53292         0.07440
   H      -12.67975         7.92956         4.10609
   H      -10.40247         7.07935         4.28266
   H      -16.19047         8.85988         3.64556
   H      -16.33741        11.12038         4.59952
   H      -14.61603        12.80570         4.06448
   H      -12.73292        12.20839         2.58535
   H      -12.58662         9.94701         1.62652
   H      -14.39055         5.18425         2.77294
   H      -14.42437         2.82264         2.09342
   H      -15.42547         2.16743        -0.06498
   H      -16.40727         3.88993        -1.53480
   H      -16.36788         6.25593        -0.85966
   H      -15.61214         9.71605         0.22089
   H      -17.65184        11.01191        -0.09850
   H      -19.93716         7.82802         1.62754
   H      -17.87999         6.52613         1.93178
   H      -19.56759        11.91980        -0.69941
   H      -24.99745        14.75325        -0.07448
   H      -27.67455        12.99212         2.09705
   H      -31.33225        16.66944         1.12582
   H      -26.97123        18.98117         0.25129
   H      -32.48862        19.04322         0.19388
*
