# ORCA input file
# SCF done       -196.500715383341          0.000913971884
! CAM-B3LYP def2-SVP def2/J RIJCOSX Grid4 TightSCF
%maxcore 5000
%tddft
    Mode sTDDFT
    Ethresh 5.0
    maxcore 5000
end

%pal
  nprocs 6
  end
* xyz 0 1
   C       -3.10696        -0.77116        -0.17179
   C       -2.69261        -1.43001        -1.29757
   C       -1.59180        -2.30980        -1.33778
   N       -0.69944        -3.02677        -1.41804
   C       -3.37052        -1.34368        -2.53184
   N       -3.91026        -1.32698        -3.54472
   C       -2.55991        -0.89550         1.16917
   C       -3.42563        -0.23319         2.07848
   C       -3.15795        -0.15266         3.42377
   C       -1.98029        -0.74745         3.88843
   C       -1.12806        -1.41537         2.97583
   C       -1.40061        -1.50234         1.61639
   S        0.27045        -2.07116         3.77121
   C       -0.29583        -1.43385         5.29494
   C       -1.47483        -0.77455         5.21653
  Br        0.73253        -1.69145         6.84144
   C       -4.57286         0.33559         1.34495
   O       -5.54068         0.89453         1.81333
   C       -4.25197         0.12023        -0.09239
   C       -4.76541         0.86798        -1.10167
   C       -5.82590         1.83649        -0.93023
   C       -7.06870         1.57802        -0.32782
   O       -7.63681         0.35894        -0.17977
   C       -7.06295        -0.80699        -0.70636
   C       -7.88390         2.66846         0.05464
   O       -9.05812         2.53868         0.72567
   C       -9.20412         1.49782         1.67643
   C       -7.49331         3.97397        -0.25189
   C       -6.31865         4.19916        -0.97595
   C       -5.50920         3.14941        -1.31594
   C       -8.29349         5.11882         0.18593
   C       -7.70560         6.15282         0.85196
   C       -8.36239         7.30962         1.29807
   C       -9.79633         7.47612         1.02169
   C      -10.56505         6.56220         0.38507
   S       -9.98965         5.06012        -0.20578
   C      -10.15583         8.71967         1.60863
   C       -9.04515         9.27021         2.24330
   C       -9.34268        10.50409         2.86258
   C      -10.64468        10.84993         2.68605
   S      -11.55992         9.70070         1.76817
   C       -7.90796         8.40155         2.05859
   C       -6.65967         8.66131         2.68759
   C       -5.47969         8.04164         2.43990
   C       -4.26051         8.09088         3.19178
   C       -3.98061         8.98402         4.26377
   O       -4.88630         9.97474         4.44535
   C       -4.62756        11.08409         5.28057
   C       -2.82833         8.79424         5.02913
   O       -2.55933         9.59486         6.12598
   C       -2.81143         8.98076         7.37592
   C       -1.92666         7.74876         4.73635
   C       -2.16787         6.94123         3.61839
   C       -3.29768         7.12058         2.87137
   C       -0.74946         7.55465         5.53020
   C       -0.12176         6.36672         5.74878
   C       -0.57673         5.00982         5.53568
   C       -1.86953         4.55731         5.63535
   C       -2.22767         3.20245         5.53973
   N       -2.56321         2.10611         5.46172
   C       -2.96518         5.38350         5.95602
   N       -3.87730         5.99540         6.29010
   C        0.60678         4.16167         5.47048
   C        1.72804         4.91724         5.89611
   C        1.29966         6.30807         6.17427
   O        1.97155         7.21498         6.60877
   C        2.98778         4.37654         5.97781
   C        3.15125         3.03921         5.59711
   C        2.02962         2.30657         5.14220
   C        0.75016         2.84415         5.08142
   S        2.46914         0.69135         4.68126
   C        4.12525         1.00589         5.12111
   C        4.34195         2.26151         5.57911
  Br        5.40264        -0.35230         4.92610
   H       -3.81657         0.36902         4.09884
   H       -0.72009        -2.00927         0.95217
   H       -1.96708        -0.30319         6.04685
   H       -4.24823         0.88724        -2.05459
   H       -6.31814        -1.23392        -0.02615
   H       -6.59630        -0.63248        -1.68102
   H       -7.88755        -1.51257        -0.81709
   H       -8.25871         1.28662         2.17797
   H       -9.58226         0.58608         1.21035
   H       -9.93113         1.86559         2.40108
   H       -6.05468         5.20851        -1.25147
   H       -4.57825         3.32352        -1.83410
   H       -6.65841         6.02510         1.07690
   H      -11.62030         6.71836         0.22323
   H       -8.63798        11.10650         3.40662
   H      -11.14637        11.72861         3.04203
   H       -6.69888         9.41124         3.46233
   H       -5.43060         7.35323         1.60884
   H       -4.73651        10.83201         6.33749
   H       -5.38422        11.82213         5.01015
   H       -3.63396        11.49900         5.10683
   H       -2.61325         9.74283         8.12779
   H       -2.15450         8.12114         7.54228
   H       -3.85011         8.64237         7.44873
   H       -1.43770         6.19768         3.33468
   H       -3.47504         6.48071         2.01908
   H       -0.26633         8.44113         5.92753
   H        3.82452         4.96598         6.31814
   H       -0.07786         2.25157         4.72705
   H        5.30290         2.62678         5.89211
*
