# ORCA input file
# SCF done       -196.282706674505          0.000850184464
! CAM-B3LYP def2-SVP def2/J RIJCOSX Grid4 TightSCF
%maxcore 5000
%tddft
    Mode sTDDFT
    Ethresh 5.0
    maxcore 5000
end

%pal
  nprocs 6
  end
* xyz 0 1
   C        6.01822        -2.29707         4.10243
   C        7.02704        -1.77399         3.34331
   F        8.10205        -1.23317         3.93196
   C        6.95182        -1.79710         1.93620
   F        7.95678        -1.27877         1.21690
   C        5.86792        -2.34272         1.30744
   C        4.81252        -2.89097         2.06185
   C        4.88728        -2.86814         3.48487
   C        3.84175        -3.41572         4.26301
   C        2.75954        -3.97375         3.63544
   C        2.69633        -3.99899         2.21539
   C        3.68556        -3.47064         1.43751
   C        1.45579        -4.67742         1.78602
   O        1.07708        -4.80104         0.64049
   C        0.82650        -5.17226         3.03211
   C        1.56004        -4.61878         4.15801
   C        1.16661        -4.62014         5.47019
   C       -0.05239        -5.14326         5.95283
   N       -1.03011        -5.52681         6.41695
   C        1.91560        -4.03758         6.51422
   N        2.48666        -3.59112         7.40423
   C       -0.13411        -6.13858         3.16244
   C       -0.92143        -6.78796         2.19261
   C       -1.20694        -6.49560         0.86766
   C       -2.03798        -7.44758         0.29381
   C       -2.39970        -8.49249         1.16476
   S       -1.73586        -8.26465         2.72877
   C       -3.18021        -9.45924         0.53136
   C       -3.43243        -9.14915        -0.81198
   S       -2.70577        -7.64700        -1.30516
   C       -4.17007       -10.12654        -1.48196
   C       -4.47024       -11.19417        -0.66273
   S       -3.86520       -10.97948         0.97055
   C       -5.11835       -12.40777        -1.01033
   C       -5.23574       -13.53524        -0.22584
   C       -5.84268       -14.58621        -0.91047
   C       -6.21365       -14.26516        -2.22467
   S       -5.79878       -12.63471        -2.61326
   C       -6.77376       -15.35305        -2.89471
   C       -6.80579       -16.50712        -2.09275
   S       -6.18349       -16.23868        -0.48977
   C       -7.29676       -17.63423        -2.73771
   C       -7.66817       -17.36719        -4.04761
   S       -7.41470       -15.66842        -4.46157
   C       -8.16745       -18.22962        -5.03927
   C       -8.15197       -19.60222        -5.02245
   C       -8.65330       -20.45031        -6.04308
   C       -8.42739       -21.77737        -5.83413
   C       -7.72699       -22.05316        -4.63891
   S       -7.40414       -20.57658        -3.76880
   C       -7.27816       -23.27120        -4.15604
   C       -7.44674       -24.55688        -4.70974
   C       -6.82833       -25.54389        -3.99729
   C       -6.13877       -25.08537        -2.85210
   S       -6.32208       -23.35371        -2.69378
   C       -5.39117       -25.84253        -1.96926
   C       -4.71942       -25.28084        -0.88862
   C       -3.92131       -25.96878         0.00342
   C       -3.20256       -25.40923         1.11884
   C       -3.18606       -24.09443         1.52632
   C       -2.45526       -23.61933         2.63291
   N       -1.88555       -23.16839         3.52301
   C       -3.88074       -23.03137         0.91642
   N       -4.40493       -22.10392         0.48420
   C       -2.46903       -26.49661         1.76479
   C       -2.73324       -27.69964         1.06624
   C       -3.65363       -27.41817        -0.05643
   O       -4.08434       -28.22970        -0.85308
   C       -2.18140       -28.90339         1.42755
   C       -1.32479       -28.92324         2.53415
   C       -1.06802       -27.71773         3.22660
   C       -1.62750       -26.49893         2.86038
   S        0.01821       -27.96559         4.56091
   C        0.11070       -29.66313         4.17381
   C       -0.63207       -30.02769         3.10233
  Br        1.18121       -30.79388         5.22059
   H        6.09101        -2.27053         5.17846
   H        5.82573        -2.35340         0.22956
   H        3.92979        -3.39020         5.33710
   H        3.61249        -3.50121         0.36101
   H       -0.28838        -6.52626         4.16356
   H       -0.81308        -5.63676         0.35784
   H       -4.45640       -10.07859        -2.51650
   H       -4.87550       -13.59072         0.78505
   H       -7.39976       -18.59167        -2.26451
   H       -8.56178       -17.75969        -5.93097
   H       -9.15785       -20.04799        -6.90372
   H       -8.72674       -22.55703        -6.51098
   H       -8.01152       -24.72177        -5.60980
   H       -6.83917       -26.58604        -4.26254
   H       -5.31780       -26.90646        -2.14143
   H       -4.83044       -24.21181        -0.75318
   H       -2.40179       -29.80269         0.87400
   H       -1.39802       -25.60873         3.42140
   H       -0.69012       -31.03270         2.72602
*
