# ORCA input file
# SCF done       -229.801499131326          0.000948992161
! CAM-B3LYP def2-SVP def2/J RIJCOSX Grid4 TightSCF
%maxcore 5000
%tddft
    Mode sTDDFT
    Ethresh 5.0
    maxcore 5000
end

%pal
  nprocs 6
  end
* xyz 0 1
   C       -1.87360         2.50645         4.50861
   C       -0.64992         2.95895         4.91531
   F       -0.46512         4.26048         5.17357
   C        0.43080         2.06725         5.06827
   F        1.61941         2.53990         5.46746
   C        0.27242         0.73414         4.81248
   C       -0.97639         0.23727         4.39171
   C       -2.07044         1.13736         4.23706
   C       -3.33455         0.66122         3.81948
   C       -3.49980        -0.67528         3.56546
   C       -2.40043        -1.56275         3.71664
   C       -1.16813        -1.13479         4.11766
   C       -2.82048        -2.93554         3.37632
   O       -2.10298        -3.91326         3.38253
   C       -4.24495        -2.83319         2.98195
   C       -4.66297        -1.45131         3.14396
   C       -5.93216        -0.94942         3.00758
   C       -7.08999        -1.69383         2.69809
   N       -8.08339        -2.22432         2.47117
   C       -6.26675         0.40856         3.19508
   N       -6.60623         1.49775         3.32254
   C       -5.03462        -3.81007         2.43199
   C       -4.82674        -5.19445         2.30360
   C       -3.87558        -6.05578         2.84020
   C       -4.10174        -7.37533         2.48252
   C       -5.23654        -7.54416         1.65393
   S       -6.02762        -6.07597         1.33939
   C       -5.36224        -8.91954         1.34128
   C       -4.31851        -9.61850         1.96843
   C       -3.49784        -8.67717         2.71371
   C       -2.41108        -8.97106         3.48312
   C       -1.93725       -10.29365         3.61564
   N       -1.56225       -11.37188         3.72752
   C       -1.69535        -8.00097         4.21841
   N       -1.10559        -7.24368         4.84458
   C       -4.36211       -10.99134         1.72438
   C       -5.42475       -11.35016         0.91866
   S       -6.38591        -9.95964         0.45082
   C       -5.77992       -12.67502         0.47196
   C       -5.15543       -13.78855         1.03842
   C       -5.51018       -15.04355         0.58138
   C       -6.47714       -15.21668        -0.44285
   C       -7.09910       -14.09957        -0.99313
   C       -6.75052       -12.85158        -0.53300
   C       -6.56964       -16.62383        -0.67077
   C       -5.65708       -17.23608         0.22994
   N       -5.04077       -16.26882         0.98171
   C       -4.05000       -16.47017         2.00165
   C       -5.48805       -18.60785         0.24783
   C       -6.22902       -19.38930        -0.63865
   C       -7.14097       -18.77869        -1.52227
   C       -7.31395       -17.41465        -1.54118
   C       -6.04259       -20.82041        -0.65049
   C       -6.42783       -21.72954        -1.61395
   C       -6.03850       -23.03471        -1.29913
   C       -5.35853       -23.11978        -0.07426
   S       -5.19574       -21.59770         0.67760
   C       -4.98933       -24.46871         0.15257
   C       -5.43400       -25.23878        -0.94213
   C       -6.11627       -24.36440        -1.88246
   C       -6.71442       -24.73197        -3.05180
   C       -6.71593       -26.07488        -3.48484
   N       -6.69791       -27.16832        -3.82954
   C       -7.35673       -23.79890        -3.89213
   N       -7.87063       -23.03393        -4.57428
   C       -5.12715       -26.58567        -0.81618
   C       -4.45528       -26.86481         0.36770
   S       -4.18402       -25.40496         1.31901
   C       -3.93551       -28.08411         0.84169
   C       -4.18870       -29.36029         0.42924
   C       -3.19552       -30.41637         0.77139
   O       -2.28443       -30.32079         1.56106
   C       -3.53120       -31.56206        -0.09613
   C       -2.85799       -32.73736        -0.26420
   C       -3.35228       -33.68466        -1.18868
   C       -4.53395       -33.38913        -1.92877
   C       -5.01550       -34.33464        -2.85627
   C       -4.35789       -35.51904        -3.03691
   C       -3.19067       -35.81094        -2.30291
   C       -2.69697       -34.91368        -1.39794
   F       -2.56583       -36.97955        -2.50137
   F       -4.81805       -36.41760        -3.91709
   C       -5.21385       -32.16559        -1.72778
   C       -4.72386       -31.26925        -0.81664
   C       -5.22111       -29.96433        -0.38236
   C       -6.51940       -29.54240        -0.51502
   C       -7.03850       -28.39773         0.11869
   N       -7.50022       -27.48308         0.63732
   C       -7.50975       -30.26016        -1.21793
   N       -8.35110       -30.80703        -1.77420
   H       -2.69022         3.20274         4.39812
   H        1.10859         0.06357         4.93424
   H       -4.13875         1.37013         3.70861
   H       -0.35421        -1.83541         4.22590
   H       -5.97962        -3.48135         2.01518
   H       -3.06198        -5.70996         3.45132
   H       -3.64109       -11.68981         2.10493
   H       -4.42084       -13.67342         1.81790
   H       -7.83978       -14.21241        -1.76934
   H       -7.22121       -11.97619        -0.95620
   H       -4.02933       -17.51843         2.28939
   H       -4.29470       -15.87339         2.88190
   H       -3.05689       -16.18095         1.64624
   H       -4.78409       -19.07989         0.91713
   H       -7.72193       -19.39593        -2.18792
   H       -8.01626       -16.96118        -2.22317
   H       -6.94588       -21.45635        -2.51439
   H       -5.32896       -27.33018        -1.56426
   H       -3.16022       -28.00568         1.59872
   H       -1.95994       -32.94130         0.29875
   H       -5.90941       -34.12843        -3.42387
   H       -1.80216       -35.15155        -0.84434
   H       -6.09924       -31.96253        -2.30879
*
