# ORCA input file
# SCF done       -232.625298422312          0.000481080082
! CAM-B3LYP def2-SVP def2/J RIJCOSX Grid4 TightSCF
%maxcore 5000
%tddft
    Mode sTDDFT
    Ethresh 5.0
    maxcore 5000
end

%pal
  nprocs 6
  end
* xyz 0 1
   C      -14.54562        -0.18070        -4.73654
   C      -14.67576        -0.69515        -5.99584
   F      -14.96110         0.10814        -7.02578
   C      -14.51600        -2.07711        -6.22622
   F      -14.65117        -2.55533        -7.46884
   C      -14.22836        -2.92474        -5.19383
   C      -14.08508        -2.42455        -3.88541
   C      -14.24570        -1.02758        -3.65106
   C      -14.09546        -0.50121        -2.34896
   C      -13.77037        -1.34300        -1.31780
   C      -13.59580        -2.73435        -1.56330
   C      -13.76513        -3.27533        -2.80576
   C      -13.16084        -3.39631        -0.32151
   O      -13.11658        -4.58576        -0.09502
   C      -12.88550        -2.28359         0.63561
   C      -13.48887        -1.07618         0.08905
   C      -13.74705         0.09122         0.75153
   C      -13.49367         0.30590         2.12359
   N      -13.30617         0.53228         3.23287
   C      -14.35088         1.21649         0.14837
   N      -14.84385         2.15510        -0.28930
   C      -12.13634        -2.38558         1.76522
   C      -11.29125        -3.48144         2.10633
   C      -11.08131        -3.96067         3.36854
   C      -10.27880        -5.15565         3.27688
   C       -9.83397        -5.90321         4.37623
   N       -9.47325        -6.51847         5.27497
   C      -10.01864        -5.42566         1.95257
   C      -10.58612        -4.38259         1.16297
   C      -10.42349        -4.15838        -0.18555
   C      -10.28963        -5.18226        -1.25321
   C      -10.32239        -4.51244        -2.45704
   C      -10.44022        -3.10989        -2.20339
   C      -10.50485        -2.89603        -0.84057
   C      -10.59447        -2.12673        -3.19027
   N      -10.79199        -1.33235        -3.99485
   C      -10.35118        -6.57535        -1.03504
   C      -10.20505        -7.52073        -2.01135
   C      -10.30556        -8.91117        -1.78418
   C      -10.80665        -9.54800        -0.67010
   C      -10.89473       -10.94944        -0.94437
   C      -11.33293       -11.91934        -0.03045
   N      -11.69447       -12.71542         0.71226
   C      -10.48413       -11.19163        -2.24051
   C      -10.05291        -9.95931        -2.80786
   C       -9.40206        -9.80931        -4.01202
   C       -9.41767       -10.77548        -5.14097
   C       -8.46560       -10.36549        -6.03963
   C       -7.85634        -9.16335        -5.54280
   C       -8.44923        -8.80552        -4.35046
   C       -6.82301        -8.46842        -6.18746
   N       -5.98267        -7.89695        -6.72025
   C      -10.37590       -11.80934        -5.29563
   C      -10.26920       -12.84002        -6.17810
   C      -11.26259       -13.84226        -6.33547
   C      -12.59055       -13.74800        -6.00909
   C      -13.26862       -14.92670        -6.48117
   C      -14.63863       -15.17338        -6.30560
   N      -15.76064       -15.36270        -6.16022
   C      -12.37001       -15.74516        -7.12081
   C      -11.07219       -15.14837        -7.01848
   C       -9.88436       -15.75684        -7.32955
   C       -9.70950       -16.97822        -8.14881
   C       -8.40053       -17.35618        -8.05174
   C       -7.71420       -16.42207        -7.18456
   C       -8.59146       -15.44983        -6.78275
   C       -6.36338       -16.51594        -6.81875
   N       -5.25962       -16.58521        -6.51381
   C      -10.68723       -17.56577        -9.00489
   C      -10.66029       -18.87035        -9.37814
   C      -11.59757       -19.41914       -10.28187
   C      -11.63725       -20.68307       -10.78930
   C      -12.89801       -21.15932       -11.42652
   O      -13.82903       -20.47375       -11.77862
   C      -12.77945       -22.62907       -11.47087
   C      -13.71331       -23.55281       -11.84273
   C      -13.39158       -24.92581       -11.76017
   C      -12.10481       -25.31417       -11.28581
   C      -11.79339       -26.68571       -11.19407
   C      -12.71495       -27.62683       -11.55842
   C      -13.98685       -27.24143       -12.02911
   C      -14.31930       -25.91947       -12.12883
   F      -14.87000       -28.18550       -12.37739
   F      -12.41785       -28.92897       -11.47056
   C      -11.15588       -24.33422       -10.91480
   C      -11.48510       -23.00845       -11.01322
   C      -10.71543       -21.79762       -10.72742
   C       -9.34972       -21.74710       -10.62722
   C       -8.57786       -20.56814       -10.57948
   N       -7.88521       -19.65242       -10.56522
   C       -8.52199       -22.89102       -10.65028
   N       -7.80163       -23.78409       -10.64601
   H      -14.66880         0.87909        -4.57792
   H      -14.10948        -3.97934        -5.38736
   H      -14.21932         0.55965        -2.20224
   H      -13.63256        -4.33506        -2.96516
   H      -12.14553        -1.56993         2.47836
   H      -11.48914        -3.56929         4.28175
   H       -9.35654        -6.19250         1.59697
   H      -10.29993        -4.94050        -3.44120
   H      -10.50935        -1.93769        -0.35787
   H      -10.54190        -6.90305        -0.02585
   H      -10.00870        -7.19964        -3.02337
   H      -11.13029        -9.09808         0.24890
   H      -10.37739       -12.16288        -2.68357
   H       -8.22693       -10.81055        -6.98680
   H       -8.13469        -7.99364        -3.72362
   H      -11.24320       -11.76749        -4.65263
   H       -9.38460       -12.91584        -6.79296
   H      -13.08852       -12.92518        -5.53225
   H      -12.58339       -16.72065        -7.51186
   H       -7.91950       -18.15899        -8.57945
   H       -8.37639       -14.67042        -6.07787
   H      -11.45761       -16.91897        -9.40463
   H       -9.92111       -19.52140        -8.93731
   H      -12.43461       -18.78932       -10.56831
   H      -14.68563       -23.23994       -12.19156
   H      -10.82365       -26.99798       -10.83915
   H      -15.29676       -25.64083       -12.49021
   H      -10.19497       -24.65960       -10.54980
*
