# ORCA input file
# SCF done       -223.992927297599          0.000731133435
! CAM-B3LYP def2-SVP def2/J RIJCOSX Grid4 TightSCF
%maxcore 5000
%tddft
    Mode sTDDFT
    Ethresh 5.0
    maxcore 5000
end

%pal
  nprocs 6
  end
* xyz 0 1
   C        1.55438         4.20222         5.39086
   C        2.10587         5.12782         4.54483
   C        3.01113         6.12703         4.95306
   N        3.71924         6.98284         5.24378
   C        1.88245         5.14024         3.15336
   N        1.78374         5.16671         2.00995
   C        1.96999         3.95847         6.76727
   C        1.54326         2.65098         7.14346
   C        1.83381         2.12773         8.37011
   C        2.56807         2.90418         9.29485
   C        2.98315         4.21779         8.93072
   C        2.67344         4.73228         7.65087
   C        3.71041         4.98329         9.86480
   C        4.01800         4.47619        11.09773
   C        3.61053         3.18213        11.45473
   C        2.90109         2.41321        10.57264
   C        0.78361         2.04733         6.03303
   O        0.31337         0.93461         5.96856
   C        0.65420         3.12899         5.01408
   C       -0.27481         3.01587         4.03395
   C       -0.83360         4.03565         3.18716
   C       -0.93750         5.37050         3.61303
   C       -1.50925         6.29956         2.78291
   C       -1.98548         5.92833         1.51198
   C       -1.89965         4.61023         1.08613
   C       -1.34261         3.67430         1.93209
   C       -2.53899         7.10065         0.87120
   C       -2.40514         8.19390         1.74362
   C       -1.73452         7.77271         3.02894
   C       -2.65061         8.00537         4.24486
   C       -3.99563         7.30031         4.11588
   C       -0.40029         8.51588         3.23380
   C        0.52250         8.42586         2.02450
   C       -2.86098         9.43808         1.38290
   C       -3.47491         9.61737         0.13612
   C       -3.58982         8.52134        -0.72936
   C       -3.13001         7.27008        -0.37237
   C       -3.99549        10.92271        -0.24456
   C       -5.03872        11.08132        -1.10888
   C       -5.59492        12.30748        -1.50129
   C       -4.97365        13.57383        -1.08324
   C       -3.94554        13.65634        -0.21226
   S       -3.20051        12.29551         0.51823
   C       -5.69150        14.58995        -1.76935
   C       -6.69209        14.00822        -2.54746
   C       -7.44909        14.97233        -3.24890
   C       -7.01147        16.23293        -2.99367
   S       -5.67435        16.30579        -1.89499
   C       -6.66126        12.58000        -2.36526
   C       -7.57922        11.68139        -2.98765
   C       -7.90243        10.45651        -2.52169
   C       -8.75812         9.47813        -3.14351
   C       -8.86516         8.22137        -2.52256
   C       -9.62183         7.23016        -3.09445
   C      -10.34764         7.48883        -4.27357
   C      -10.26129         8.72994        -4.89306
   C       -9.46049         9.70400        -4.33623
   C      -11.12473         6.31870        -4.60118
   C      -10.87390         5.32993        -3.63240
   C       -9.84588         5.80997        -2.63121
   C       -8.58465         4.93398        -2.82297
   C       -7.34356         5.37569        -2.05824
   C      -10.37077         5.73403        -1.19003
   C      -11.67220         6.50621        -1.00603
   C      -11.49366         4.10898        -3.68457
   C      -12.40959         3.84144        -4.71837
   C      -12.64713         4.84316        -5.68568
   C      -12.02040         6.06668        -5.63633
   C      -13.10510         2.60575        -4.89926
   C      -13.20443         1.44544        -4.18248
   C      -13.97166         0.30248        -4.67192
   C      -14.47846         0.11943        -5.93311
   C      -15.19478        -1.02813        -6.33541
   N      -15.78804        -1.92585        -6.73661
   C      -14.35616         0.99322        -7.03463
   N      -14.30870         1.61746        -7.99867
   C      -14.05998        -0.68090        -3.59961
   C      -13.30148        -0.20524        -2.49627
   C      -12.71330         1.10501        -2.82343
   O      -11.98716         1.73794        -2.08284
   C      -13.18168        -0.91514        -1.33672
   C      -13.83263        -2.16347        -1.22476
   C      -14.60006        -2.64694        -2.32309
   C      -14.70491        -1.88674        -3.51048
   C      -15.24594        -3.89432        -2.20202
   C      -15.13882        -4.62998        -1.05342
   C      -14.38330        -4.15213         0.02779
   C      -13.74434        -2.94502        -0.05612
   H        1.50997         1.13146         8.63231
   H        2.99364         5.73235         7.40228
   H        4.02490         5.97781         9.58399
   H        4.57826         5.06931        11.80493
   H        3.86164         2.79767        12.43197
   H        2.58464         1.41610        10.84200
   H       -0.69802         2.02163         3.92242
   H       -0.60467         5.64506         4.60390
   H       -2.26882         4.31918         0.11454
   H       -1.26408         2.64381         1.61829
   H       -2.81444         9.07902         4.35767
   H       -2.13856         7.65095         5.14202
   H       -4.53023         7.65232         3.23638
   H       -4.60748         7.49839         4.99289
   H       -3.86044         6.22458         4.02639
   H        0.10320         8.09546         4.10752
   H       -0.61453         9.56540         3.44763
   H        0.73513         7.38945         1.77218
   H        1.46473         8.92404         2.24023
   H        0.06985         8.90411         1.15889
   H       -2.76728        10.27608         2.05823
   H       -4.02340         8.65917        -1.70814
   H       -3.22551         6.44083        -1.05676
   H       -5.46593        10.18389        -1.52964
   H       -3.52105        14.59770         0.09966
   H       -8.27115        14.75310        -3.90621
   H       -7.39471        17.15431        -3.38696
   H       -8.05330        12.06019        -3.88376
   H       -7.49145        10.14581        -1.57059
   H       -8.34506         8.05386        -1.59049
   H      -10.81499         8.92953        -5.79861
   H       -9.38757        10.66511        -4.82140
   H       -8.34767         4.91608        -3.89038
   H       -8.84508         3.91617        -2.52554
   H       -6.99842         6.34632        -2.40457
   H       -6.54533         4.65512        -2.22408
   H       -7.53166         5.42727        -0.98910
   H       -9.61828         6.13839        -0.51152
   H      -10.53258         4.68584        -0.93242
   H      -11.53549         7.55704        -1.25385
   H      -12.00619         6.43639         0.02665
   H      -12.45245         6.10124        -1.64646
   H      -11.29325         3.36047        -2.93842
   H      -13.34196         4.63670        -6.48747
   H      -12.21992         6.81580        -6.38784
   H      -13.68312         2.60539        -5.81677
   H      -12.59586        -0.52835        -0.51595
   H      -15.29914        -2.28084        -4.31903
   H      -15.82557        -4.25868        -3.03755
   H      -15.63543        -5.58527        -0.97156
   H      -14.31043        -4.74527         0.92722
   H      -13.16113        -2.57134         0.77296
*
