# ORCA input file
# SCF done       -191.310984926110          0.000633232059
! CAM-B3LYP def2-SVP def2/J RIJCOSX Grid4 TightSCF
%maxcore 5000
%tddft
    Mode sTDDFT
    Ethresh 5.0
    maxcore 5000
end

%pal
  nprocs 6
  end
* xyz 0 1
   C      -11.06801        -4.26659         3.03342
   C      -10.32517        -3.91218         4.12337
   C       -9.41689        -2.83431         4.10425
   C       -9.19971        -2.04709         2.99168
   C       -9.96008        -2.39112         1.83829
   C      -10.88712        -3.49790         1.86875
   N      -11.43704        -3.57578         0.67046
   O      -10.89894        -2.59918        -0.04982
   N      -10.01155        -1.87522         0.62602
   C       -8.27440        -0.95317         2.96574
   C       -7.99507        -0.11543         1.90525
   C       -7.02889         0.83860         2.23276
   C       -6.57206         0.72091         3.55738
   S       -7.32986        -0.55491         4.39561
   C       -5.58896         1.71479         3.79032
   C       -5.42368         2.46286         2.61253
   C       -6.32652         1.93891         1.59566
   C       -6.46888         2.39233         0.31775
   C       -5.71398         3.47813        -0.17467
   N       -5.09658         4.36001        -0.56985
   C       -7.37245         1.81620        -0.60124
   N       -8.09912         1.36348        -1.36313
   C       -4.45825         3.45930         2.73347
   C       -3.88492         3.47482         3.99369
   S       -4.55908         2.24050         5.04857
   C       -2.85070         4.32380         4.45487
   C       -2.24624         4.32726         5.69967
   C       -1.22779         5.27454         5.78422
   C       -1.05784         6.00434         4.58785
   S       -2.15776         5.52421         3.36940
   C        0.01048         6.90360         4.75425
   C        0.53184         6.75213         6.05974
   C       -0.24427         5.72666         6.74835
   C       -0.07218         5.28362         8.02758
   C        0.93140         5.80251         8.87174
   N        1.74595         6.22319         9.56038
   C       -0.88729         4.27630         8.58502
   N       -1.55023         3.45668         9.03620
   C        1.62010         7.56802         6.30549
   C        1.96076         8.36032         5.20150
   S        0.86715         8.07037         3.84700
   C        3.06193         9.21918         5.15810
   C        3.49759        10.01866         4.12320
   C        2.92851        10.29795         2.86088
   C        3.68111        11.12977         2.08357
   C        4.88944        11.54100         2.68387
   S        5.02621        10.87206         4.28512
   C        5.88245        12.33340         2.12241
   C        5.88490        12.93216         0.84711
   C        7.03028        13.62211         0.56868
   C        7.98615        13.59160         1.60639
   S        7.37145        12.68413         2.96568
   C        9.23866        14.17927         1.58563
   C       10.16048        14.06123         2.61734
   C       11.42320        14.61202         2.69759
   C       12.40994        14.00823         3.62160
   O       12.19004        13.19488         4.49293
   C       13.71793        14.56655         3.21688
   C       14.96310        14.26085         3.68183
   C       16.08617        14.90212         3.11074
   C       15.89156        15.84765         2.06331
   C       17.01481        16.47798         1.49244
   C       18.27200        16.18504         1.94191
   C       18.46305        15.25065         2.97819
   C       17.39357        14.62167         3.55180
   F       19.70786        14.98089         3.39866
   F       19.33926        16.78677         1.39714
   C       14.58626        16.14919         1.60783
   C       13.51409        15.52132         2.18054
   C       12.07398        15.64412         1.94111
   C       11.47796        16.69007         1.27361
   C       10.09651        16.96376         1.29100
   N        8.98766        17.26397         1.30065
   C       12.19203        17.68381         0.57680
   N       12.71807        18.50908        -0.02476
   H      -11.76327        -5.08835         3.03905
   H      -10.42615        -4.46994         5.04214
   H       -8.86524        -2.61781         5.00798
   H       -8.48177        -0.21713         0.95222
   H       -4.16982         4.14315         1.95543
   H       -2.54038         3.66005         6.49003
   H        2.17171         7.60588         7.22736
   H        3.66661         9.22249         6.05631
   H        1.98050         9.89768         2.55261
   H        3.39840        11.44559         1.09592
   H        5.05463        12.84316         0.17030
   H        7.21624        14.15075        -0.34890
   H        9.49996        14.71759         0.68640
   H        9.91546        13.37959         3.42719
   H       15.09160        13.53841         4.47343
   H       16.88601        17.19835         0.69975
   H       17.55631        13.90824         4.34445
   H       14.47145        16.86473         0.80952
*
