# ORCA input file
# SCF done       -158.892306566087          0.000682529094
! CAM-B3LYP def2-SVP def2/J RIJCOSX Grid4 TightSCF
%maxcore 5000
%tddft
    Mode sTDDFT
    Ethresh 5.0
    maxcore 5000
end

%pal
  nprocs 6
  end
* xyz 0 1
   C        1.15327        -0.60911        -4.11412
   C        1.31954         0.49211        -4.96223
   C        1.60964         0.12945        -6.25236
   S        1.90289         1.12012        -7.65748
   C        1.79691         2.79056        -6.95346
   S        1.68062        -1.59055        -6.43502
   C        1.31223        -1.82570        -4.73972
   C        1.23242        -3.14756        -4.22809
   C        0.96537        -3.46696        -2.93786
   C        0.90664        -4.79137        -2.43479
   C        1.09411        -5.99451        -3.09329
   C        0.97228        -7.09117        -2.24254
   C        0.68358        -6.72834        -0.90774
   S        0.56434        -5.03246        -0.72057
   C        0.59366        -7.89665        -0.12949
   C        0.82975        -9.01149        -0.96571
   C        1.06563        -8.53299        -2.32260
   C        1.31596        -9.29266        -3.43020
   C        1.52700        -8.71704        -4.69954
   N        1.69347        -8.25371        -5.73585
   C        1.37771       -10.70031        -3.38439
   N        1.43218       -11.84599        -3.36038
   C        0.78447       -10.22251        -0.30083
   C        0.50904       -10.07315         1.06142
   S        0.29981        -8.36796         1.48988
   C        0.38720       -11.03333         2.06870
   C        0.59224       -12.39453         1.97144
   C        0.44408       -13.31920         3.03001
   C        0.73011       -14.61286         2.69556
   C        1.12449       -14.77642         1.35514
   S        1.10799       -13.23964         0.52585
   C        1.50508       -15.93728         0.69494
   C        1.57238       -17.24929         1.20177
   C        2.00569       -18.17657         0.29621
   C        2.30764       -17.64395        -0.97595
   S        2.00766       -15.91043        -0.97361
   C        2.79125       -18.20678        -2.13915
   C        3.10327       -19.53800        -2.43054
   C        2.95245       -20.71728        -1.69612
   C        3.40610       -21.82934        -2.38259
   C        3.91778       -21.53068        -3.66333
   S        3.82438       -19.86075        -4.01506
   C        4.35410       -22.73101        -4.25973
   C        4.11775       -23.79560        -3.36694
   C        3.52127       -23.26982        -2.16300
   C        3.15399       -23.95727        -1.03856
   C        2.58670       -23.31103         0.07633
   N        2.12947       -22.77908         0.98483
   C        3.33234       -25.34970        -0.92086
   N        3.48496       -26.48250        -0.81988
   C        4.51586       -25.03598        -3.88432
   C        5.05991       -24.92650        -5.14205
   S        5.06381       -23.26004        -5.71993
   C        5.56939       -25.95138        -6.01161
   C        5.54051       -25.81401        -7.42353
   C        6.02641       -26.90172        -8.08228
   S        6.10692       -27.07628        -9.81698
   C        6.90565       -28.69841        -9.96826
   S        6.54833       -28.13676        -6.97821
   C        6.11178       -27.16016        -5.60266
   C        6.41095       -27.61746        -4.27694
   C        6.76173       -28.86405        -3.96584
   H        0.92267        -0.50798        -3.06931
   H        1.22781         1.50946        -4.62928
   H        1.99673         3.47100        -7.77504
   H        2.54930         2.91005        -6.17992
   H        0.79865         2.96282        -6.56288
   H        1.40831        -3.93635        -4.94544
   H        0.78781        -2.68029        -2.21823
   H        1.31203        -6.06289        -4.14277
   H        0.93231       -11.17615        -0.77046
   H        0.11112       -10.66579         3.04896
   H        0.13168       -13.00221         4.00943
   H        0.67219       -15.44042         3.37932
   H        1.30443       -17.48307         2.21654
   H        2.12023       -19.21653         0.53663
   H        2.96887       -17.51100        -2.95015
   H        2.51539       -20.75136        -0.71737
   H        4.37081       -25.97425        -3.38162
   H        5.15856       -24.94570        -7.92942
   H        6.99763       -28.89442       -11.03165
   H        6.28372       -29.45481        -9.49792
   H        7.88720       -28.66567        -9.50407
   H        6.35843       -26.86271        -3.50431
   H        6.81605       -29.63874        -4.71344
   H        6.99547       -29.14648        -2.95546
*
