# ORCA input file
# SCF done       -220.991335123386          0.001821562822
! CAM-B3LYP def2-SVP def2/J RIJCOSX Grid4 TightSCF
%maxcore 5000
%tddft
    Mode sTDDFT
    Ethresh 5.0
    maxcore 5000
end

%pal
  nprocs 6
  end
* xyz 0 1
   C        2.20987         2.32820        -2.56281
   C        1.36204         2.96376        -3.42949
   C        1.66347         4.25055        -3.89660
   C        2.80791         4.88337        -3.49170
   C        3.70062         4.25918        -2.59867
   C        4.87945         4.91402        -2.16765
   C        5.72060         4.27698        -1.29940
   C        5.41313         2.96421        -0.83572
   C        4.28189         2.31227        -1.22912
   C        3.39384         2.95205        -2.12518
   C        6.49258         2.50833         0.05781
   O        6.58617         1.41882         0.60471
   C        7.48791         3.58290         0.06610
   C        6.95352         4.70920        -0.65002
   C        7.38726         6.00947        -0.52694
   C        8.29632         6.38164         0.47777
   N        8.95294         6.69012         1.37063
   C        6.87970         7.08544        -1.27310
   N        6.52235         7.98519        -1.89106
   C        8.72354         3.34389         0.62564
   N        9.89352         3.94408         0.37045
   C       10.09313         4.70305        -0.80580
   C       10.89356         5.84334        -0.81565
   S       11.74102         6.35849         0.62983
   C       11.92284         4.79124         1.40864
   C       13.00474         4.62166         2.26586
   C       13.19326         3.42682         2.92853
   C       12.30279         2.38447         2.72315
   C       11.22741         2.54241         1.87104
   C       11.01177         3.75093         1.21170
   C       11.03492         6.58961        -1.97991
   C       10.41985         6.18273        -3.14454
   C        9.69349         5.00031        -3.16295
   C        9.53918         4.26410        -2.00705
   C        8.66641        -0.02876        -1.58181
   C        9.79493        -0.70808        -0.89182
   C       11.01510        -0.07436        -0.64610
   C       12.07448        -0.72364         0.09130
   N       13.20124        -0.06208         0.40259
   C       13.35841         1.15553        -0.04560
   C       12.36587         1.75440        -0.90132
   N       11.23045         1.16366        -1.14936
   C       12.66962         3.00068        -1.50062
   N       12.98300         3.99525        -1.97597
   C       14.50702         1.89567         0.31819
   N       15.41223         2.53612         0.60943
   C       11.97598        -2.06997         0.47566
   C       10.75485        -2.71607         0.23255
   C        9.67735        -2.02836        -0.44307
   N        8.59935        -2.81494        -0.56087
   S        8.90952        -4.23760         0.10004
   N       10.41916        -3.96154         0.57940
   N       13.00170        -2.64648         1.23732
   C       13.63718        -3.79863         0.83088
   C       13.74386        -4.12641        -0.53270
   S       12.97297        -3.15381        -1.81914
   C       14.02271        -1.73703        -1.96685
   C       13.59860        -0.74544        -2.84687
   C       14.33545         0.41528        -2.97575
   C       15.49611         0.58977        -2.23400
   C       15.92130        -0.40887        -1.37366
   C       15.18712        -1.57264        -1.23039
   C       14.44248        -5.24595        -0.95189
   C       15.07964        -6.06499        -0.03962
   C       15.01318        -5.74204         1.30501
   C       14.30911        -4.63417         1.73130
   C       13.02673        -2.18455         2.62301
   C       12.02396        -3.01993         3.35447
   C       10.69816        -2.79974         3.37087
   C        9.68312        -3.76760         3.79243
   C        9.88728        -4.87724         4.56178
   C        8.86376        -5.77665         4.93312
   N        8.07714        -6.54324         5.26440
   C       11.12602        -5.26052         5.12023
   N       12.09603        -5.62636         5.61309
   C        8.41258        -3.32097         3.24934
   C        8.58039        -2.01941         2.68700
   C        7.54065        -1.35445         2.09754
   C        6.27921        -1.98347         2.02021
   C        5.18363        -1.34524         1.40669
   C        3.97008        -1.97319         1.32858
   C        3.80003        -3.26152         1.85888
   C        4.84488        -3.90684         2.46263
   C        6.10888        -3.29049         2.56193
   C        7.19354        -3.94615         3.18425
   C        9.98548        -1.61527         2.80279
   O       10.46947        -0.54284         2.49712
   H        1.98367         1.33393        -2.20227
   H        0.45598         2.47684        -3.75988
   H        0.98454         4.73936        -4.57913
   H        3.04355         5.87516        -3.84785
   H        5.09210         5.90352        -2.54143
   H        4.05761         1.32054        -0.86281
   H        8.75779         2.52751         1.33673
   H        9.03235         0.82494        -2.14537
   H       13.68870         5.44400         2.40128
   H       14.03435         3.30470         3.59168
   H       12.43475         1.43918         3.22581
   H       10.56241         1.70552         1.72449
   H       11.63994         7.48164        -1.95173
   H       10.52534         6.76973        -4.04301
   H        9.24757         4.64950        -4.08064
   H        8.99129         3.33435        -2.02520
   H        8.15282        -0.72868        -2.23633
   H        7.94256         0.31627        -0.84212
   H       15.51812        -2.34604        -0.55438
   H       12.68931        -0.89101        -3.41172
   H       14.00184         1.19031        -3.65033
   H       16.06535         1.50133        -2.32993
   H       16.82374        -0.27608        -0.79738
   H       14.48656        -5.46006        -2.00890
   H       15.62032        -6.93540        -0.37442
   H       15.50782        -6.36231         2.03681
   H       14.27863        -4.42821         2.78778
   H       12.75589        -1.12918         2.62315
   H       14.03208        -2.29888         3.02989
   H       12.38834        -3.96167         3.73993
   H        7.66351        -0.36563         1.68325
   H        5.33466        -0.35350         1.00956
   H        3.13015        -1.48180         0.85995
   H        2.83512        -3.74121         1.78864
   H        4.71784        -4.89672         2.87595
   H        7.03998        -4.93504         3.58645
*
