# ORCA input file
# SCF done       -216.689975545301          0.000780966275
! CAM-B3LYP def2-SVP def2/J RIJCOSX Grid4 TightSCF
%maxcore 5000
%tddft
    Mode sTDDFT
    Ethresh 5.0
    maxcore 5000
end

%pal
  nprocs 6
  end
* xyz 0 1
   C       -8.64563         3.19003        -0.28234
   C       -8.29833         3.80151         0.91315
   C       -7.41624         3.19774         1.79853
   C       -6.84496         1.96797         1.50817
   C       -7.17980         1.35127         0.31410
   C       -8.08975         1.95605        -0.58261
   C       -8.28177         1.07444        -1.72635
   C       -8.99180         1.37112        -2.85801
   C       -9.64356         2.60387        -3.08106
   N      -10.19529         3.57886        -3.32922
   C       -9.14955         0.52362        -3.97552
   N       -9.31777        -0.11010        -4.91808
   C       -7.58335        -0.17163        -1.41833
   C       -6.72851         0.09625        -0.26488
   C       -5.55866        -0.53991         0.05094
   C       -5.00474        -1.60800        -0.68400
   N       -4.48726        -2.45361        -1.26292
   C       -4.70475        -0.14035         1.10211
   N       -3.96794         0.13607         1.93657
   C       -7.80774        -1.35686        -2.06180
   C       -7.51260        -2.65683        -1.59626
   C       -7.32602        -3.09931        -0.29073
   C       -7.10190        -4.46452        -0.22930
   C       -7.12315        -5.08602        -1.50007
   S       -7.44135        -3.98054        -2.75328
   C       -6.87234        -6.46538        -1.33120
   C       -6.69160        -6.71860         0.04854
   C       -6.81953        -5.46978         0.78024
   C       -6.67724        -5.26570         2.12143
   C       -6.39882        -6.31759         3.01968
   N       -6.18088        -7.17238         3.75167
   C       -6.80323        -3.97641         2.68084
   N       -6.91162        -2.91969         3.11281
   C       -6.44494        -8.05396         0.32257
   C       -6.43483        -8.82803        -0.83456
   S       -6.72749        -7.87875        -2.28293
   C       -6.23320       -10.22827        -0.91534
   C       -6.23671       -10.89345        -2.16323
   C       -6.05478       -12.31577        -2.27895
   N       -6.07137       -12.88691        -3.48776
   C       -6.25087       -12.15215        -4.55888
   C       -6.43181       -10.73598        -4.44368
   N       -6.42045       -10.15985        -3.26583
   C       -6.62930        -9.94057        -5.60002
   N       -6.78853        -9.32148        -6.54983
   C       -6.26925       -12.77765        -5.83058
   N       -6.29187       -13.25834        -6.86945
   C       -5.86701       -13.14952        -1.15233
   C       -5.85074       -12.48681         0.09813
   C       -6.02719       -11.05613         0.21398
   N       -5.97497       -10.66169         1.48683
   S       -5.72961       -11.93014         2.43352
   N       -5.67934       -13.05354         1.29307
   C       -5.71887       -14.55118        -1.29858
   C       -5.57454       -15.48406        -0.27528
   C       -5.47219       -16.77600        -0.76473
   C       -5.52862       -16.83431        -2.17675
   S       -5.72016       -15.29220        -2.89081
   C       -5.41453       -18.18581        -2.56995
   C       -5.29626       -18.98519        -1.40873
   C       -5.31759       -18.12243        -0.24065
   C       -5.18830       -18.50561         1.06208
   C       -5.01972       -19.86280         1.40956
   N       -4.88722       -20.97240         1.66698
   C       -5.21679       -17.58075         2.12724
   N       -5.24903       -16.83151         2.99420
   C       -5.16405       -20.33451        -1.69096
   C       -5.16171       -20.58677        -3.05882
   S       -5.37306       -19.11174        -3.99633
   C       -5.08296       -21.81809        -3.74461
   C       -4.62832       -23.01735        -3.27185
   C       -4.96288       -24.30813        -3.87111
   C       -5.42729       -24.54047        -5.13692
   C       -5.63015       -23.55768        -6.12960
   N       -5.81663       -22.81292        -6.98326
   C       -5.72596       -25.82403        -5.64432
   N       -5.98564       -26.83498        -6.12083
   C       -4.70115       -25.32030        -2.85678
   C       -4.06353       -24.70788        -1.75399
   C       -3.72961       -25.44401        -0.62947
   C       -4.02809       -26.79826        -0.61523
   C       -4.64085       -27.40563        -1.70252
   C       -4.98455       -26.67698        -2.83155
   C       -3.85822       -23.30186        -2.06392
   C       -2.90803       -22.50069        -1.49152
   C       -2.09678       -22.89651        -0.40558
   N       -1.40702       -23.16106         0.47149
   C       -2.54961       -21.22360        -1.96919
   N       -2.19663       -20.19444        -2.33545
   H       -9.33929         3.67074        -0.95210
   H       -8.72817         4.76050         1.15853
   H       -7.17135         3.68883         2.72764
   H       -6.17051         1.50146         2.20760
   H       -8.32654        -1.32245        -3.01043
   H       -7.39596        -2.45218         0.56483
   H       -6.27899        -8.48111         1.29454
   H       -5.55249       -15.19508         0.75946
   H       -5.11481       -21.11059        -0.94896
   H       -5.49524       -21.80195        -4.74479
   H       -3.26479       -24.97895         0.22463
   H       -3.78155       -27.38527         0.25601
   H       -4.86095       -28.46164        -1.67002
   H       -5.46846       -27.16437        -3.66175
*
