# ORCA input file
# SCF done       -227.511859211495          0.000930583186
! CAM-B3LYP def2-SVP def2/J RIJCOSX Grid4 TightSCF
%maxcore 5000
%tddft
    Mode sTDDFT
    Ethresh 5.0
    maxcore 5000
end

%pal
  nprocs 6
  end
* xyz 0 1
   C       -3.49706       -13.26309        11.96833
   C       -4.25329       -12.08939        11.98270
   C       -5.30855       -12.01969        13.05927
   O       -5.24782       -12.73996        14.01542
   O       -6.31553       -11.15832        12.91439
   C       -3.97841       -11.06428        11.06072
   C       -4.69838        -9.84691        11.01701
   N       -5.25866        -8.84919        10.92700
   C       -2.94387       -11.20756        10.12716
   C       -2.22161       -12.37844        10.12511
   C       -2.48870       -13.41936        11.03336
   C       -1.56026       -14.52147        10.77144
   C       -1.52513       -15.69946        11.46644
   C       -2.40630       -16.03291        12.52068
   N       -3.08918       -16.38422        13.37213
   C       -0.61858       -16.75940        11.24218
   N        0.08452       -17.65922        11.12624
   C       -0.71542       -14.11998         9.65983
   C       -1.09850       -12.76863         9.24919
   O       -0.60819       -12.08772         8.36598
   C        0.24918       -14.89051         9.05658
   C        1.08809       -14.60879         7.97021
   C        1.97364       -15.56946         7.45772
   C        2.68884       -15.10584         6.37354
   C        2.36633       -13.76093         6.05579
   S        1.17967       -13.09014         7.07652
   C        3.12600       -13.38590         4.92785
   C        3.91812       -14.48151         4.51670
   C        3.69609       -15.58537         5.43833
   C        4.33362       -16.78906         5.45315
   C        5.38281       -17.10692         4.56148
   N        6.26617       -17.36198         3.87790
   C        4.02249       -17.78651         6.40352
   N        3.76730       -18.59865         7.17104
   C        4.64972       -14.22556         3.36551
   C        4.44193       -12.92804         2.90687
   S        3.32663       -12.02226         3.92034
   C        5.00258       -12.35922         1.74810
   C        5.67891       -13.04158         0.72479
   C        6.08625       -12.17057        -0.33942
   N        6.74877       -12.62124        -1.40363
   C        6.98479       -13.91432        -1.45316
   C        7.74955       -14.42103        -2.62267
   O        8.13064       -13.69284        -3.51345
   C        8.01459       -15.87000        -2.61020
   C        7.55380       -16.69980        -1.66859
   C        6.71641       -16.26676        -0.53447
   O        6.20090       -17.04735         0.23276
   C        6.52692       -14.79453        -0.42267
   N        5.90137       -14.35600         0.64748
   C        5.72504       -10.83274        -0.13962
   S        4.88705       -10.66530         1.36763
   C        5.98254        -9.79325        -1.04806
   C        5.72032        -8.43510        -0.89844
   C        6.09065        -7.72027        -2.02769
   C        6.62591        -8.54410        -3.04377
   S        6.70231       -10.19322        -2.59880
   C        6.92040        -7.73032        -4.15926
   C        6.59716        -6.38974        -3.85015
   C        6.07140        -6.34247        -2.49669
   C        5.64764        -5.24443        -1.80887
   C        5.68949        -3.94715        -2.36397
   N        5.72960        -2.89199        -2.80958
   C        5.14907        -5.33750        -0.49167
   N        4.74739        -5.41884         0.57889
   C        6.84491        -5.51939        -4.90276
   C        7.30105        -6.18168        -6.03534
   S        7.49754        -7.91196        -5.74795
   C        7.63849        -5.57684        -7.26509
   C        7.73869        -6.14432        -8.49989
   C        8.52027        -5.46110        -9.56784
   O        8.93765        -4.32975        -9.55072
   C        8.71253        -6.48931       -10.62022
   C        8.00084        -7.65153       -10.26995
   C        8.06743        -8.77651       -11.07485
   C        8.82106        -8.72586       -12.24492
   C        9.51285        -7.55464       -12.59654
   C        9.46213        -6.42386       -11.77470
   C       10.25746        -7.46887       -13.80116
   N       10.84822        -7.29154       -14.76559
   C        8.96859        -9.93562       -13.12532
   O        9.97408       -10.15781       -13.73538
   O        7.91650       -10.75930       -13.18271
   C        7.25256        -7.39404        -9.04017
   C        6.10118        -8.04914        -8.68625
   C        5.23186        -7.61219        -7.66558
   N        4.48246        -7.26539        -6.86865
   C        5.60732        -9.15847        -9.40170
   N        5.19167       -10.05801        -9.98079
   H       -3.73261       -14.01618        12.70414
   H       -6.26784       -10.57817        12.13980
   H       -2.72037       -10.41761         9.42599
   H        0.39523       -15.88802         9.45280
   H        2.05347       -16.55544         7.88057
   H        5.29251       -14.91646         2.85003
   H        8.60842       -16.23266        -3.43834
   H        7.75721       -17.76141        -1.70540
   H        5.28203        -8.02299        -0.00713
   H        6.66993        -4.45870        -4.88648
   H        7.91878        -4.52877        -7.21250
   H        7.58210        -9.69412       -10.77694
   H        9.99637        -5.52385       -12.03849
   H        7.14746       -10.46705       -12.67344
*
