# ORCA input file
# SCF done       -176.713335302093          0.000992615882
! CAM-B3LYP def2-SVP def2/J RIJCOSX Grid4 TightSCF
%maxcore 5000
%tddft
    Mode sTDDFT
    Ethresh 5.0
    maxcore 5000
end

%pal
  nprocs 6
  end
* xyz 0 1
   C        1.28132        -1.81490        -6.76653
   S        0.06922        -2.88635        -6.17352
   C       -1.12240        -2.31991        -7.32918
   C       -0.55467        -1.35022        -8.10989
   C        0.79635        -1.06430        -7.79114
   C        1.24265        -0.00536        -8.71337
   O        2.29475         0.54287        -8.81629
   O        0.15796         0.30128        -9.50823
   C       -0.95756        -0.45649        -9.19981
   O       -2.00857        -0.31182        -9.74163
   C       -2.43955        -2.87939        -7.41193
   C       -3.07026        -3.36007        -8.53844
   N       -2.55267        -3.45815        -9.85248
   O       -1.37082        -3.22442       -10.02558
   O       -3.32063        -3.81563       -10.72166
   C       -4.35754        -3.90363        -8.16978
   C       -4.48877        -3.82417        -6.82604
   C       -3.32627        -3.16366        -6.28347
   C       -3.13713        -2.73807        -4.98524
   C       -2.40504        -1.58545        -4.57089
   C       -2.65914        -1.36369        -3.25237
   C       -3.50838        -2.40146        -2.74523
   N       -3.86050        -2.40472        -1.38555
   O       -3.25287        -1.64212        -0.65464
   O       -4.75200        -3.14414        -0.99145
   C       -3.80026        -3.29846        -3.78348
   C       -4.32916        -4.59862        -3.82928
   C       -5.02814        -5.26950        -2.85570
   C       -5.45210        -6.59539        -3.03143
   N       -6.15576        -7.29908        -2.08364
   C       -6.51695        -6.83278        -0.76331
   C       -5.33474        -6.87987         0.19952
   C       -6.46256        -8.59714        -2.50503
   O       -7.07231        -9.40515        -1.83457
   C       -5.90432        -8.68260        -3.84351
   C       -5.29035        -7.45328        -4.13771
   C       -4.74644        -7.53744        -5.47935
   O       -4.12522        -6.74488        -6.15793
   N       -5.09545        -8.82689        -5.91772
   C       -4.69227        -9.30442        -7.21956
   C       -3.45337       -10.19267        -7.14245
   C       -5.77129        -9.53247        -4.95437
   C       -6.22311       -10.85936        -5.11419
   C       -6.85435       -11.53334        -4.11100
   C       -7.31840       -12.86643        -4.19347
   S       -8.06067       -13.59766        -2.79676
   C       -8.31192       -15.09305        -3.62881
   C       -7.83527       -15.00726        -4.94614
   C       -7.28023       -13.76011        -5.25161
   C       -7.88141       -16.04015        -5.89948
   N       -7.89385       -16.84790        -6.71429
   C       -8.91989       -16.16778        -2.93116
   C       -9.19230       -17.39162        -3.44871
   C       -9.78935       -18.44242        -2.70282
   S      -10.11020       -19.97473        -3.49362
   C      -10.76808       -20.68225        -2.07276
   C      -10.74379       -19.79192        -1.04380
   C      -10.19687       -18.52804        -1.38518
   C      -10.24074       -17.70202        -0.17737
   O       -9.89457       -16.57349         0.01481
   O      -10.79372       -18.47806         0.81872
   C      -11.12331       -19.74537         0.37631
   O      -11.61335       -20.56769         1.08323
   H        2.25906        -1.81298        -6.32819
   H       -5.05373        -4.30087        -8.88264
   H       -5.35635        -4.09066        -6.25619
   H       -1.86291        -0.93209        -5.22572
   H       -2.30891        -0.54687        -2.64933
   H       -4.13080        -5.13094        -4.74995
   H       -5.27676        -4.77271        -1.93099
   H       -7.30636        -7.50287        -0.41253
   H       -6.91460        -5.81769        -0.83205
   H       -4.94615        -7.89314         0.26953
   H       -5.65933        -6.56237         1.18584
   H       -4.53788        -6.21803        -0.12974
   H       -4.46684        -8.41401        -7.81278
   H       -5.52666        -9.83503        -7.68585
   H       -2.61910        -9.63133        -6.72954
   H       -3.18324       -10.53071        -8.13870
   H       -3.63113       -11.06173        -6.51272
   H       -6.04775       -11.34087        -6.06466
   H       -7.01837       -11.03144        -3.16569
   H       -6.86870       -13.52998        -6.21801
   H       -9.17338       -15.96486        -1.89875
   H       -8.95784       -17.62117        -4.47831
   H      -11.12577       -21.69239        -2.08070
*
