# ORCA input file
# SCF done       -173.722937727233          0.000860827859
! CAM-B3LYP def2-SVP def2/J RIJCOSX Grid4 TightSCF
%maxcore 5000
%tddft
    Mode sTDDFT
    Ethresh 5.0
    maxcore 5000
end

%pal
  nprocs 6
  end
* xyz 0 1
   C       -5.14693         0.62682        -7.77550
   C       -4.18913        -0.30052        -7.44237
   C       -4.65429        -1.22435        -6.51480
   C       -5.98408        -1.01504        -6.14816
   S       -6.64633         0.35096        -7.01949
   C       -6.71984        -1.80950        -5.24399
   C       -8.08176        -2.09748        -5.19964
   N       -9.12120        -1.49799        -5.90475
   O      -10.19979        -2.06497        -5.93162
   O       -8.90842        -0.41757        -6.45211
   C       -8.29925        -3.21374        -4.32295
   C       -7.10713        -3.61247        -3.80391
   C       -6.08520        -2.73218        -4.27247
   C       -4.82533        -2.58946        -3.72129
   C       -4.08260        -1.37361        -3.60037
   C       -3.03523        -1.58802        -2.75687
   C       -3.03451        -2.95523        -2.33594
   N       -2.01193        -3.42958        -1.49878
   O       -1.02885        -2.72026        -1.36856
   O       -2.14651        -4.50315        -0.92773
   C       -4.11652        -3.61899        -2.93798
   C       -4.45358        -4.97422        -3.09782
   C       -4.06488        -6.04964        -2.33847
   C       -4.48178        -7.35162        -2.64935
   N       -4.19339        -8.45058        -1.87783
   C       -3.46198        -8.45235        -0.63101
   C       -4.33853        -8.01337         0.53820
   C       -4.74464        -9.62554        -2.40157
   O       -4.62764       -10.71878        -1.88386
   C       -5.41490        -9.19870        -3.61894
   C       -5.23977        -7.81464        -3.74686
   C       -5.88197        -7.39268        -4.98119
   O       -5.99082        -6.30066        -5.50279
   N       -6.39959        -8.57386        -5.52528
   C       -7.14646        -8.57089        -6.76287
   C       -8.65215        -8.60081        -6.51776
   C       -6.14807        -9.66604        -4.73188
   C       -6.57412       -10.96639        -5.03646
   C       -6.37397       -12.00373        -4.15984
   C       -6.72733       -13.35659        -4.29993
   C       -6.95417       -14.19236        -5.40745
   N       -7.09008       -13.89445        -6.77264
   O       -6.98495       -14.82309        -7.55588
   O       -7.32039       -12.74462        -7.12110
   C       -6.97560       -15.55154        -4.96670
   C       -6.76849       -15.59437        -3.61982
   C       -6.64576       -14.25630        -3.13600
   C       -6.66409       -13.85098        -1.81146
   C       -7.26620       -12.66095        -1.31242
   C       -7.37148       -12.75270         0.04579
   C       -6.77585       -13.97820         0.47816
   N       -6.68177       -14.33460         1.83049
   O       -7.13087       -13.54971         2.64908
   O       -6.17207       -15.40679         2.12673
   C       -6.28959       -14.66702        -0.63512
   C       -5.46428       -15.80528        -0.61230
   C       -4.60842       -16.18292        -1.60887
   C       -3.79678       -17.33720        -1.55508
   C       -3.71632       -18.32632        -0.58724
   C       -2.78959       -19.32289        -0.89983
   C       -2.16195       -19.10734        -2.09736
   S       -2.69279       -17.68011        -2.86745
   H       -5.03984         1.44306        -8.46341
   H       -3.19461        -0.30863        -7.85078
   H       -4.07534        -2.05364        -6.15268
   H       -9.27225        -3.62180        -4.12405
   H       -6.97085        -4.36877        -3.05676
   H       -4.37575        -0.43093        -4.01845
   H       -2.30939        -0.87048        -2.42350
   H       -5.11136        -5.17208        -3.93469
   H       -3.44601        -5.90181        -1.46776
   H       -2.58853        -7.80271        -0.72225
   H       -3.12794        -9.48158        -0.47528
   H       -4.69833        -6.99757         0.39342
   H       -3.76133        -8.04845         1.45721
   H       -5.19266        -8.67905         0.63857
   H       -6.83940        -9.42394        -7.37244
   H       -6.87555        -7.64607        -7.27914
   H       -8.94183        -9.50511        -5.98808
   H       -9.17455        -8.57494        -7.46935
   H       -8.95506        -7.73660        -5.93122
   H       -7.08942       -11.13538        -5.96845
   H       -5.88799       -11.76911        -3.22118
   H       -7.14517       -16.38127        -5.62670
   H       -6.80625       -16.46906        -3.00012
   H       -7.69262       -11.88737        -1.92037
   H       -7.82826       -12.04712         0.71415
   H       -5.45936       -16.35514         0.31925
   H       -4.49785       -15.55973        -2.48589
   H       -4.30341       -18.31883         0.31257
   H       -2.58577       -20.17140        -0.27194
   H       -1.41548       -19.71749        -2.56689
*
