# ORCA input file
# SCF done       -188.445938798801          0.000798373443
! CAM-B3LYP def2-SVP def2/J RIJCOSX Grid4 TightSCF
%maxcore 5000
%tddft
    Mode sTDDFT
    Ethresh 5.0
    maxcore 5000
end

%pal
  nprocs 6
  end
* xyz 0 1
   C        3.44674         2.71907         1.68094
   C        3.10373         3.80285         2.42839
   S        3.40107         3.52332         4.10536
   C        4.00044         1.91033         3.79685
  Cl        4.53301         0.91068         5.05616
   C        3.95904         1.63352         2.46292
   C        4.30090         0.50392         1.59218
   O        4.76401        -0.56584         1.91398
   C        4.00119         0.99146         0.20796
   C        3.44218         2.33500         0.28454
   C        2.95040         3.10302        -0.73616
   C        2.42182         4.38940        -0.49746
   N        1.99171         5.43846        -0.32227
   C        2.89037         2.72254        -2.09158
   N        2.80572         2.46452        -3.20719
   C        4.36040         0.33981        -0.92685
   C        4.88955        -0.99325        -0.98691
   C        4.35483        -2.08754        -0.28650
   N        4.89946        -3.27720        -0.31743
   C        5.99112        -3.45537        -1.06670
   N        6.50945        -2.50878        -1.85444
   C        5.98265        -1.31530        -1.81437
   C        6.67908        -4.71987        -1.06867
   N        6.27257        -5.85954        -0.42135
   C        5.04484        -6.06897         0.30875
   C        3.86467        -6.28903        -0.63245
   C        7.19123        -6.90700        -0.59407
   O        7.04396        -8.01787        -0.11744
   C        8.24348        -6.33488        -1.39963
   C        7.89380        -4.98622        -1.68230
   C        8.96632        -4.40322        -2.46996
   O        9.15066        -3.31042        -2.94583
   N        9.89315        -5.46950        -2.61779
   C       11.15309        -5.26803        -3.29165
   C       12.29961        -5.06440        -2.30381
   C        9.47889        -6.60369        -1.97756
   C       10.24375        -7.81221        -1.93579
   C        9.86470        -8.87673        -1.21469
   C       10.68267       -10.12444        -1.12948
   C       12.16030        -9.79547        -0.91308
   O       12.61794        -9.09011        -0.06524
   O       12.91562       -10.41890        -1.82212
   C       12.16549       -11.21240        -2.73346
   C       10.67035       -10.96936        -2.41728
   C        9.85477       -12.24989        -2.27365
   C       10.58501       -13.26750        -1.41230
   C       11.83223       -13.79093        -2.11665
   C       12.72772       -12.65532        -2.67251
   O       13.11154       -13.03641        -3.98919
   C       12.47426       -14.11094        -4.43613
   O       12.64054       -14.57131        -5.52969
   C       11.59227       -14.70412        -3.34288
   C       10.18552       -15.05111        -3.70286
   C        9.54287       -15.18706        -4.87228
   C        8.33388       -16.10120        -4.85585
   O        7.67535       -16.38642        -3.88884
   C        8.23950       -16.58609        -6.23133
   C        7.51482       -17.51802        -6.91736
   S        7.99529       -17.54948        -8.59534
   C        9.15472       -16.29300        -8.35827
   C        9.17654       -15.88547        -7.06221
   C        9.83984       -14.86936        -6.26853
   C       10.37055       -13.72408        -6.78301
   C       10.52604       -13.54200        -8.17461
   N       10.65243       -13.38937        -9.30342
   C       10.68193       -12.59630        -6.00353
   N       10.85179       -11.64396        -5.38681
  Cl        6.30756       -18.54490        -6.32263
   H        2.70242         4.74627         2.11555
   H        4.29792         0.86062        -1.87488
   H        3.43373        -2.00057         0.27308
   H        6.45533        -0.56578        -2.43556
   H        4.85931        -5.20834         0.95221
   H        5.20735        -6.96387         0.91601
   H        3.69338        -5.40181        -1.23643
   H        2.96880        -6.49525        -0.05411
   H        4.05927        -7.13367        -1.28934
   H       11.02755        -4.36718        -3.89904
   H       11.35440        -6.11390        -3.95491
   H       12.10381        -4.19210        -1.68530
   H       13.22706        -4.90396        -2.84650
   H       12.41914        -5.92847        -1.65371
   H       11.17046        -7.83287        -2.49276
   H        8.94006        -8.84893        -0.65577
   H       10.34453       -10.70631        -0.26788
   H       12.40309       -10.85540        -3.74227
   H       10.24241       -10.37875        -3.23013
   H        9.67076       -12.67136        -3.26328
   H        8.88755       -12.00236        -1.83521
   H        9.92754       -14.09911        -1.15995
   H       10.89535       -12.80714        -0.47187
   H       12.41813       -14.35182        -1.38280
   H       13.65654       -12.57822        -2.09382
   H       12.03975       -15.68860        -3.13223
   H        9.62818       -15.45351        -2.86011
   H        9.74721       -15.95592        -9.18542
*
