# ORCA input file
# SCF done       -175.931755461983          0.000760910529
! CAM-B3LYP def2-SVP def2/J RIJCOSX Grid4 TightSCF
%maxcore 5000
%tddft
    Mode sTDDFT
    Ethresh 5.0
    maxcore 5000
end

%pal
  nprocs 6
  end
* xyz 0 1
   C        0.82070        -4.17345        -4.93854
   C       -0.02684        -4.38290        -5.98146
   S        0.35626        -5.84626        -6.81357
   C        1.68969        -6.18718        -5.73557
  Cl        2.64300        -7.57453        -5.91900
   C        1.80387        -5.20582        -4.79666
   C        2.66991        -4.90432        -3.65647
   O        3.61455        -5.55132        -3.24946
   C        2.15029        -3.63778        -3.09618
   C        1.02502        -3.18271        -3.89890
   C        0.27333        -2.04633        -3.75552
   C       -0.79215        -1.75924        -4.63525
   N       -1.66236        -1.51003        -5.33997
   C        0.44678        -1.05293        -2.77213
   N        0.53547        -0.20786        -1.99969
   C        2.62962        -3.00878        -1.98049
   C        3.69149        -3.35716        -1.12226
   S        4.78052        -4.71198        -1.26261
   C        5.61870        -4.25371         0.18117
   C        5.06463        -3.08930         0.74689
   C        3.99486        -2.59699         0.00532
   C        5.51019        -2.45292         1.91831
   N        5.84452        -1.90846         2.87203
   C        6.70092        -5.05122         0.62038
   C        7.38848        -4.87021         1.78148
   C        8.46429        -5.70187         2.16900
   N        9.13079        -5.57155         3.36623
   C        8.81577        -4.64701         4.42988
   C        7.60327        -5.10150         5.23790
   C       10.16037        -6.51991         3.50362
   O       10.88497        -6.60608         4.47357
   C       10.10925        -7.26980         2.26772
   C        9.06411        -6.75327         1.47168
   C        9.03665        -7.52069         0.24693
   O        8.32302        -7.46268        -0.73395
   N       10.07811        -8.46332         0.38995
   C       10.36884        -9.38023        -0.68497
   C       11.58425        -8.93762        -1.49640
   C       10.72739        -8.32019         1.59354
   C       11.79296        -9.05148         2.17590
   C       12.50620       -10.10750         1.71484
   C       13.50127       -10.75078         2.50605
   S       14.26393       -12.20093         1.93182
   C       15.18020       -12.36903         3.38922
   C       16.09741       -13.48819         3.64274
   O       16.70270       -13.59455         4.67659
   O       16.24217       -14.38742         2.65807
   C       14.88692       -11.35065         4.28773
   C       13.95042       -10.43674         3.76886
   C       15.47565       -11.21615         5.59835
   C       14.83449       -10.79136         6.70639
   C       15.62763       -10.32975         7.89779
   O       16.80270       -10.50650         8.08997
   C       14.66003        -9.57106         8.69998
   C       14.67860        -8.80648         9.82855
   S       13.08164        -8.18183        10.17067
   C       12.40583        -8.96914         8.79367
   C       13.35531        -9.66482         8.11129
   C       13.41885       -10.53281         6.95351
   C       12.33402       -11.11863         6.36250
   C       11.01595       -10.77641         6.73579
   N        9.93660       -10.50071         7.00821
   C       12.38121       -12.14232         5.39523
   N       12.33758       -13.00905         4.64382
  Cl       15.99797        -8.45128        10.82837
   H       -0.84921        -3.78566        -6.32204
   H        2.12310        -2.09967        -1.67779
   H        3.44478        -1.71143         0.27426
   H        6.97450        -5.87035        -0.03320
   H        7.11400        -4.06845         2.44931
   H        8.65123        -3.64920         4.01440
   H        9.69832        -4.62036         5.07498
   H        6.71698        -5.16218         4.61047
   H        7.41276        -4.39309         6.03877
   H        7.78999        -6.08042         5.67297
   H        9.48333        -9.37492        -1.32780
   H       10.49891       -10.38760        -0.28174
   H       11.38525        -7.97512        -1.96104
   H       11.79019        -9.66352        -2.27812
   H       12.46485        -8.83859        -0.86558
   H       12.02488        -8.67440         3.16356
   H       12.33418       -10.53689         0.74070
   H       15.67572       -14.21943         1.89301
   H       13.63889        -9.55726         4.30302
   H       16.53412       -11.42934         5.69192
   H       11.36286        -8.85159         8.57568
*
