# ORCA input file
# SCF done       -235.862832107045          0.000941844197
! CAM-B3LYP def2-SVP def2/J RIJCOSX Grid4 TightSCF
%maxcore 5000
%tddft
    Mode sTDDFT
    Ethresh 5.0
    maxcore 5000
end

%pal
  nprocs 6
  end
* xyz 0 1
   C        1.90765         9.43073         0.14386
   C        3.16782         9.88025        -0.12978
   C        3.49567        11.23845        -0.33261
   N        3.81043        12.32833        -0.50129
   C        4.26366         9.01343        -0.32467
   N        5.15274         8.32135        -0.54414
   C        0.68495        10.21252         0.18713
   C       -0.43354         9.32517         0.19407
   C       -1.71734         9.79123         0.21967
   C       -1.94453        11.18481         0.24727
   C       -0.83116        12.07652         0.24869
   C        0.48626        11.56870         0.21712
   C       -1.07293        13.46538         0.28262
   C       -2.35129        13.95227         0.31314
   C       -3.44604        13.07431         0.31147
   C       -3.24724        11.72053         0.27870
   C        0.03859         7.93554         0.19759
   O       -0.60550         6.91551         0.12209
   C        1.52863         8.03331         0.33312
   C        2.30441         7.00837         0.71453
   C        1.80079         5.64761         0.87945
   C        1.00429         5.16276         1.90281
   C        0.48371         5.72328         3.11597
   O       -0.32872         5.17414         3.82326
   C        1.04602         7.09484         3.59275
   F        0.47734         8.13900         2.96300
   F        0.82962         7.26459         4.89265
   F        2.37249         7.21133         3.40041
   S        0.56643         3.49490         1.62932
   C        1.47294         3.45457         0.20235
   C        2.08793         4.65530        -0.10114
   C        2.90904         4.93764        -1.25037
   C        3.18523         4.04083        -2.21960
   C        3.98518         4.18061        -3.38946
   N        4.66111         5.26441        -3.89610
   C        4.70299         6.62342        -3.41187
   C        3.40722         7.37706        -3.70260
   C        5.34457         4.93636        -5.08955
   O        6.02179         5.72923        -5.70940
   C        5.04963         3.53786        -5.31031
   C        4.21883         3.11067        -4.24814
   C        3.94104         1.70338        -4.42444
   O        3.28832         0.91392        -3.77448
   N        4.64170         1.36543        -5.59993
   C        4.60335         0.02763        -6.13755
   C        3.63184        -0.08642        -7.30990
   C        5.29570         2.44731        -6.13842
   C        6.08648         2.38991        -7.31966
   C        6.61044         3.50149        -7.87730
   C        7.42311         3.54737        -9.06460
   C        8.50450         2.69808        -9.38340
   C        9.01667         1.63554        -8.49084
   O        8.61093         1.29288        -7.42074
   S       10.44854         0.86109        -9.24776
   C       10.39177         1.92805       -10.68463
   O       11.18999         1.85992       -11.57026
   C        9.25232         2.85988       -10.55250
   C        8.99780         3.86261       -11.50935
   C        7.91042         4.69473       -11.19413
   C        7.17724         4.54185       -10.02640
   C        6.05869         5.51463       -10.06623
   O        5.17104         5.69877        -9.29533
   O        6.16973         6.20100       -11.25258
   C        7.22885         5.74656       -11.99921
   O        7.44427         6.14235       -13.10082
   C        9.77619         4.00506       -12.71509
   C       10.14164         5.19753       -13.22950
   C       10.86332         5.29561       -14.45267
   C       11.28874         6.46802       -14.99201
   C       11.93949         6.65404       -16.28191
   C       12.39445         5.67094       -17.11903
   C       13.03872         5.91754       -18.35114
   N       13.57021         6.04912       -19.35981
   C       12.30970         4.28151       -16.88399
   N       12.28226         3.13894       -16.77772
   C       12.04288         8.08763       -16.52300
   C       11.53970         8.78240       -15.38558
   C       11.09813         7.81390       -14.37041
   O       10.69072         8.06323       -13.25747
   C       11.50738        10.14647       -15.32832
   C       11.98076        10.89392       -16.42909
   C       12.48249        10.20712       -17.57287
   C       12.50659         8.79454       -17.60219
   C       12.95023        10.96270       -18.66770
   C       12.92437        12.33028       -18.63599
   C       12.43014        13.00533       -17.50947
   C       11.96869        12.30271       -16.42954
   H       -2.54949         9.10327         0.22494
   H        1.31163        12.26363         0.22983
   H       -0.22727        14.13712         0.28267
   H       -2.52639        15.01717         0.33935
   H       -4.44765        13.47627         0.33704
   H       -4.08620        11.04047         0.27798
   H        3.36596         7.14100         0.88526
   H        1.52272         2.54690        -0.36703
   H        3.30776         5.93911        -1.28500
   H        2.77239         3.04355        -2.14215
   H        5.52329         7.10276        -3.95463
   H        4.94665         6.63980        -2.34699
   H        3.24012         7.42382        -4.77596
   H        3.48536         8.39166        -3.32059
   H        2.54944         6.89107        -3.24188
   H        4.26684        -0.61595        -5.31980
   H        5.61176        -0.27536        -6.43253
   H        2.62756         0.17603        -6.98640
   H        3.62106        -1.10745        -7.68099
   H        3.91783         0.57932        -8.12150
   H        6.23379         1.42195        -7.77439
   H        6.35982         4.46911        -7.45778
   H       10.11728         3.09154       -13.18459
   H        9.90541         6.11845       -12.71860
   H       11.03421         4.36885       -14.98537
   H       11.12067        10.64796       -14.45364
   H       12.88877         8.30632       -18.48441
   H       13.33005        10.43850       -19.53233
   H       13.28454        12.90014       -19.47930
   H       12.41681        14.08492       -17.50213
   H       11.58690        12.81690       -15.55977
*
