# ORCA input file
# SCF done       -205.090832285864          0.000494460797
! CAM-B3LYP def2-SVP def2/J RIJCOSX Grid4 TightSCF
%maxcore 5000
%tddft
    Mode sTDDFT
    Ethresh 5.0
    maxcore 5000
end

%pal
  nprocs 6
  end
* xyz 0 1
   C        5.87228         5.14303        -0.12298
   C        6.33317         5.64669         1.06573
   C        7.67702         5.56191         1.48721
   N        8.75222         5.52877         1.88833
   C        5.54638         6.26756         2.05872
   N        4.97604         6.76180         2.92504
   C        6.67291         4.40275        -1.08918
   C        5.80075         3.86561        -2.07720
   C        6.26395         3.11049        -3.11564
   C        7.65099         2.86258        -3.22104
   C        8.53236         3.40745        -2.24307
   C        8.02162         4.17916        -1.17437
   C        9.91541         3.16243        -2.36359
   C       10.40619         2.41408        -3.39864
   C        9.53736         1.87639        -4.35992
   C        8.18920         2.09538        -4.27273
   C        4.41376         4.26799        -1.78498
   O        3.42843         3.92926        -2.40676
   C        4.49970         5.16696        -0.60697
   C        3.54477         6.00589        -0.10717
   C        2.18120         6.17000        -0.43216
   S        1.36555         7.52675         0.33431
   C       -0.13721         7.13937        -0.42563
   C        0.00435         5.99947        -1.22324
   C        1.29890         5.46269        -1.22341
   C       -1.06449         5.44192        -1.94922
   N       -1.93099         4.97621        -2.53810
   C       -1.31756         7.91232        -0.25383
   C       -1.33626         9.00265         0.53689
   N       -2.38587         9.86337         0.72421
   C       -3.58489         9.84374         0.02317
   O       -3.96643         8.96534        -0.70303
   C       -4.31573        11.15315         0.31649
   C       -3.46681        11.77503         1.38021
   C       -2.30672        11.00861         1.52814
   C       -1.28654        11.41488         2.36461
   C       -1.42821        12.61283         3.06373
   C       -2.59336        13.35663         2.92786
   C       -3.62130        12.94613         2.08933
   C       -0.32359        13.07030         3.96468
   C       -4.26250        12.01573        -0.97656
   C       -2.79545        12.32595        -1.20080
   O       -1.88882        11.54692        -1.39934
   N       -2.60590        13.67625        -1.03439
   C       -3.81889        14.32061        -0.74314
   C       -4.84822        13.37443        -0.76719
   C       -6.14728        13.76454        -0.52180
   C       -6.39849        15.09928        -0.24005
   C       -5.36876        16.03197        -0.16646
   C       -5.66547        17.45920         0.17417
   C       -4.05601        15.64092        -0.42045
   C       -1.33338        14.20135        -1.04765
   S       -0.01026        13.13212        -0.70603
   C        1.10844        14.45372        -0.81429
   C        2.54292        14.28875        -0.55953
   O        3.28792        15.22294        -0.40522
   O        2.99803        13.02687        -0.49266
   C        0.47062        15.64915        -1.12265
   C       -0.92528        15.48178        -1.27366
   C        1.18557        16.87816        -1.32590
   C        0.77470        18.12439        -0.99437
   C        1.56338        19.33260        -1.21688
   C        2.52822        19.48856        -2.17102
   C        3.25309        20.68397        -2.36486
   N        3.86688        21.63364        -2.55979
   C        2.86367        18.50796        -3.13168
   N        3.14334        17.78064        -3.97394
   C        1.06241        20.35866        -0.31628
   C       -0.10487        19.85989         0.33098
   C       -0.37777        18.48590        -0.12066
   O       -1.33328        17.80395         0.18758
   C       -0.80484        20.61287         1.23069
   C       -0.35646        21.91681         1.53524
   C        0.81625        22.41814         0.89862
   C        1.51711        21.61955        -0.03314
   C        1.25829        23.71845         1.21702
   C        0.57646        24.48817         2.11963
   C       -0.57842        23.99421         2.74497
   C       -1.03538        22.73669         2.45840
   H        5.58066         2.71060        -3.85015
   H        8.71493         4.58260        -0.45362
   H       10.57989         3.57747        -1.61997
   H       11.46721         2.23231        -3.48242
   H        9.94173         1.28843        -5.17031
   H        7.51555         1.68440        -5.01041
   H        3.87708         6.70002         0.65664
   H        1.58375         4.59134        -1.78500
   H       -2.19213         7.60202        -0.80540
   H       -0.44126         9.28265         1.07692
   H       -5.35616        10.98000         0.59557
   H       -0.38425        10.83677         2.48902
   H       -2.70053        14.27807         3.47937
   H       -4.51836        13.53805         1.99377
   H       -0.48119        14.09644         4.28468
   H        0.63781        13.00334         3.45913
   H       -0.27733        12.43708         4.85036
   H       -4.69476        11.44726        -1.80279
   H       -6.95124        13.04489        -0.54029
   H       -7.41209        15.41945        -0.05100
   H       -6.37702        17.52095         0.99477
   H       -6.10565        17.96330        -0.68617
   H       -4.75565        17.98507         0.45023
   H       -3.25666        16.35603        -0.32265
   H        2.31672        12.36539        -0.67491
   H       -1.57823        16.27211        -1.58498
   H        2.18529        16.75637        -1.72422
   H       -1.68886        20.21672         1.70854
   H        2.40539        22.02096        -0.49476
   H        2.14692        24.09452         0.73199
   H        0.92337        25.48246         2.35731
   H       -1.10342        24.61503         3.45536
   H       -1.92366        22.35118         2.93735
*
