# ORCA input file
# SCF done       -251.362474140751          0.000678663950
! CAM-B3LYP def2-SVP def2/J RIJCOSX Grid4 TightSCF
%maxcore 5000
%tddft
    Mode sTDDFT
    Ethresh 5.0
    maxcore 5000
end

%pal
  nprocs 6
  end
* xyz 0 1
   C        7.35444         8.56003         2.47685
   C        6.71677         9.76188         2.35217
   C        6.95527        10.86355         3.20259
   N        7.11872        11.78349         3.86771
   C        5.81528        10.05767         1.31009
   N        5.11518        10.35102         0.44821
   C        8.44191         8.23840         3.38526
   C        9.10261         7.06132         2.91786
   C       10.17665         6.53381         3.57729
   C       10.63892         7.16243         4.75454
   C        9.97222         8.32832         5.23490
   C        8.86768         8.85715         4.53050
   C       10.43580         8.93552         6.42002
   C       11.50636         8.41976         7.09838
   C       12.16347         7.27441         6.62339
   C       11.73983         6.65986         5.47630
   C        8.42240         6.55902         1.71724
   O        8.72124         5.64006         0.99346
   C        7.19444         7.40894         1.59962
   C        6.11969         6.95436         0.92992
   C        4.76714         7.44224         1.00139
   C        3.98714         7.57269         2.12533
   N        4.32743         7.29835         3.46788
   O        3.41327         7.19449         4.26064
   O        5.50818         7.18316         3.76282
   C        2.63236         7.92609         1.73916
   C        2.59397         8.08107         0.39922
   C        3.91004         7.83793        -0.14035
   C        4.34240         8.02895        -1.43024
   C        5.54771         7.52787        -2.01727
   C        5.46531         7.66747        -3.36855
   C        4.24037         8.32353        -3.70873
   N        3.95427         8.57657        -5.06446
   O        4.89420         8.56308        -5.83777
   O        2.79647         8.76694        -5.41193
   C        3.55622         8.65898        -2.52645
   C        2.56897         9.61789        -2.25301
   C        1.76481        10.23698        -3.18661
   C        0.85335        11.28565        -3.00041
   C        0.18383        11.83455        -1.89731
   N        0.23559        11.49276        -0.52766
   O       -0.24716        12.28472         0.25575
   O        0.73584        10.42905        -0.20520
   C       -0.75752        12.80696        -2.35085
   C       -0.73825        12.85224        -3.71594
   C        0.27243        11.96611        -4.18346
   C        0.75137        11.88570        -5.48259
   C        2.11098        11.75409        -5.87310
   C        2.22138        12.03036        -7.21239
   C        0.92481        12.27496        -7.74266
   N        0.68899        12.52202        -9.10972
   O       -0.46640        12.63674        -9.49438
   O        1.66068        12.62307        -9.83153
   C       -0.02220        12.15739        -6.71350
   C       -1.40797        12.07851        -6.87950
   C       -2.28012        11.51028        -5.97726
   C       -3.66146        11.40769        -6.17622
   C       -4.64039        11.32376        -5.17604
   N       -4.44712        11.19206        -3.78898
   O       -5.44187        11.13859        -3.09076
   O       -3.30366        11.13117        -3.35801
   C       -5.92624        11.48717        -5.76738
   C       -5.78164        11.67268        -7.11570
   C       -4.39774        11.55806        -7.44988
   C       -3.87077        11.32900        -8.70771
   C       -2.77573        10.45162        -8.98521
   C       -2.72108        10.24327       -10.32531
   C       -3.71915        11.04949       -10.97591
   N       -3.83247        10.98222       -12.38336
   O       -3.01112        10.30163       -12.96582
   O       -4.74167        11.56893       -12.94580
   C       -4.43724        11.75928       -10.01257
   C       -5.37741        12.81441       -10.06203
   C       -5.87189        13.44598       -11.16698
   C       -6.83496        14.48572       -11.14909
   C       -7.92506        14.60117       -10.33534
   C       -8.88840        15.68998       -10.35475
   C       -8.66569        16.94877       -10.84719
   C       -9.62500        17.98335       -10.82633
   N      -10.36870        18.85714       -10.83875
   C       -7.44020        17.38662       -11.39387
   N       -6.46308        17.81146       -11.82072
   C      -10.09446        15.23336        -9.67888
   C       -9.85589        13.92574        -9.16503
   C       -8.49195        13.50167        -9.50386
   O       -7.96304        12.45222        -9.20048
   C      -10.81074        13.23764        -8.47090
   C      -12.07208        13.83594        -8.25888
   C      -12.32155        15.14053        -8.77730
   C      -11.31303        15.82953        -9.48983
   C      -13.58650        15.72451        -8.56488
   C      -14.55907        15.05481        -7.87253
   C      -14.31201        13.77184        -7.36149
   C      -13.09465        13.17523        -7.54990
   H       10.66415         5.64328         3.20909
   H        8.36908         9.72973         4.92264
   H        9.92790         9.81759         6.78084
   H       11.85298         8.89113         8.00567
   H       13.00582         6.88068         7.17204
   H       12.24113         5.77720         5.10718
   H        6.27228         6.05430         0.34002
   H        1.82873         8.03318         2.44159
   H        1.72138         8.32330        -0.17060
   H        6.35427         7.06057        -1.49091
   H        6.18273         7.34807        -4.10170
   H        2.50091         9.92521        -1.22069
   H        1.82551         9.88579        -4.20817
   H       -1.38066        13.37777        -1.68860
   H       -1.30579        13.51602        -4.33879
   H        2.93194        11.61709        -5.19690
   H        3.12332        12.06162        -7.79461
   H       -1.79158        12.44302        -7.82399
   H       -1.90765        11.15466        -5.02593
   H       -6.84484        11.46030        -5.21181
   H       -6.58553        11.73544        -7.82375
   H       -2.19179         9.94778        -8.24012
   H       -2.05662         9.59040       -10.85914
   H       -5.67020        13.20128        -9.09641
   H       -5.48850        13.18884       -12.14553
   H       -6.72769        15.21326       -11.94679
   H      -10.60612        12.24806        -8.08981
   H      -11.53426        16.81187        -9.87604
   H      -13.77224        16.71282        -8.95869
   H      -15.52473        15.51082        -7.71498
   H      -15.09088        13.25831        -6.81836
   H      -12.89881        12.18753        -7.15922
*
