# ORCA input file
# SCF done       -196.698952147756          0.000887453791
! CAM-B3LYP def2-SVP def2/J RIJCOSX Grid4 TightSCF
%maxcore 5000
%tddft
    Mode sTDDFT
    Ethresh 5.0
    maxcore 5000
end

%pal
  nprocs 6
  end
* xyz 0 1
   C        1.52109         3.41262        -3.09983
   C        1.95087         2.11819        -2.97056
   C        2.92862         1.52545        -3.79817
   N        3.71160         0.98175        -4.43756
   C        1.47534         1.18275        -2.02753
   N        1.13930         0.36465        -1.29471
   C        1.98158         4.35849        -4.11048
   C        1.22233         5.55837        -3.99129
   C        1.43269         6.63263        -4.80729
   C        2.43814         6.55776        -5.79679
   C        3.20561         5.36350        -5.92070
   C        2.96062         4.26560        -5.06392
   C        4.21041         5.30149        -6.90729
   C        4.44771         6.36713        -7.73257
   C        3.69160         7.54230        -7.60974
   C        2.70769         7.63554        -6.66280
   C        0.26276         5.41439        -2.88921
   O       -0.57088         6.23026        -2.53737
   C        0.51133         4.08720        -2.29950
   C       -0.05570         3.60585        -1.15348
   C       -0.99696         4.19790        -0.28685
   S       -1.79569         5.73747        -0.48295
   C       -2.63994         5.53936         1.01567
   C       -2.30820         4.32438         1.63401
   C       -1.39518         3.57853         0.89365
   C       -2.85290         3.90676         2.86231
   N       -3.29923         3.56501         3.86122
   C       -3.53021         6.50852         1.53894
   C       -3.88184         7.63872         0.87792
   C       -4.75659         8.62588         1.39679
   S       -5.44606         8.47004         2.98758
   C       -6.33338         9.95723         2.80356
   C       -6.10787        10.53366         1.56510
   C       -5.20634         9.78889         0.78489
   C       -4.77228        10.33628        -0.55094
   C       -3.73973        11.36006        -0.13781
   O       -3.91496        12.54114        -0.04701
   C       -2.35329        10.77697         0.27293
   F       -1.97938         9.74986        -0.50336
   F       -1.40069        11.70267         0.18707
   F       -2.36225        10.32758         1.53831
   C       -5.92040        11.01379        -1.32718
   C       -7.16227        11.29056        -0.47810
   C       -6.79110        11.70549         0.94943
   C       -7.13091        10.44309         3.87531
   O       -7.77048        11.62395         3.77658
   C       -8.42664        11.86823         4.93562
   C       -8.20763        10.81182         5.81704
   C       -7.37019         9.88700         5.13148
   C       -6.90384         8.66768         5.64088
   N       -6.53842         7.67474         6.08240
   C       -8.70975        10.64979         7.11528
   N       -9.11066        10.49965         8.17888
   C       -9.20124        13.05418         5.03807
   C       -9.77219        13.49386         6.18437
   C      -10.59058        14.65185         6.30450
   C      -11.46553        15.15068         5.38769
   C      -12.28917        16.33379         5.58934
   C      -11.97834        17.39410         6.39653
   C      -12.78802        18.54125         6.53278
   N      -13.41274        19.49245         6.68094
   C      -10.78504        17.49747         7.14385
   N       -9.82267        17.65166         7.74991
   C      -13.44196        16.22913         4.70788
   C      -13.26856        15.08573         3.87615
   C      -11.99159        14.42475         4.19629
   O      -11.50988        13.47258         3.62151
   C      -14.19982        14.72636         2.94428
   C      -15.37078        15.50439         2.80538
   C      -15.55375        16.64616         3.63878
   C      -14.56966        16.99764         4.59079
   C      -16.73037        17.40935         3.49607
   C      -17.68173        17.06342         2.57534
   C      -17.50045        15.93983         1.75502
   C      -16.36916        15.17779         1.86657
   H        0.84340         7.53056        -4.69474
   H        3.56253         3.37878        -5.18154
   H        4.78982         4.39452        -6.99811
   H        5.22033         6.31021        -8.48447
   H        3.89295         8.37365        -8.26854
   H        2.12289         8.53822        -6.56303
   H        0.27104         2.63040        -0.81321
   H       -1.02275         2.61646         1.20041
   H       -3.93740         6.31133         2.52377
   H       -3.47654         7.80361        -0.11139
   H       -4.29737         9.55789        -1.15068
   H       -6.19628        10.38352        -2.17235
   H       -5.54219        11.95863        -1.72163
   H       -7.78195        10.39239        -0.42524
   H       -7.75123        12.07625        -0.95044
   H       -7.68158        11.98118         1.51066
   H       -6.12044        12.56782         0.92245
   H       -9.28468        13.62196         4.12421
   H       -9.56544        12.97148         7.10970
   H      -10.55947        15.12985         7.27741
   H      -14.04722        13.85602         2.32336
   H      -14.73794        17.86131         5.21470
   H      -16.86477        18.27409         4.12903
   H      -18.57996        17.65377         2.47437
   H      -18.26205        15.68055         1.03500
   H      -16.22459        14.31125         1.23804
*
