# ORCA input file
# SCF done       -205.180882441707          0.000538988308
! CAM-B3LYP def2-SVP def2/J RIJCOSX Grid4 TightSCF
%maxcore 5000
%tddft
    Mode sTDDFT
    Ethresh 5.0
    maxcore 5000
end

%pal
  nprocs 6
  end
* xyz 0 1
   C        0.10138         1.97107        -5.49811
   C       -0.49409         2.48403        -6.61778
   C       -1.39763         1.76076        -7.42442
   N       -2.13845         1.21536        -8.10994
   C       -0.20614         3.76481        -7.13097
   N        0.03425         4.78188        -7.60733
   C        0.04102         0.59263        -5.04018
   C        1.13528         0.35534        -4.15461
   C        1.34260        -0.86980        -3.58762
   C        0.44858        -1.92429        -3.87916
   C       -0.65592        -1.68684        -4.74901
   C       -0.84496        -0.41086        -5.32591
   C       -1.54583        -2.74584        -5.02140
   C       -1.35459        -3.98159        -4.46607
   C       -0.26586        -4.21532        -3.61240
   C        0.61620        -3.20911        -3.32548
   C        1.90272         1.59811        -3.97738
   O        2.93030         1.77763        -3.36770
   C        1.09660         2.64253        -4.67958
   C        1.25794         3.94959        -4.38275
   C        0.37274         5.03541        -4.68067
   C       -0.99513         5.13765        -4.48735
   N       -1.89309         4.18136        -3.98222
   O       -3.03744         4.54508        -3.77634
   O       -1.49389         3.04359        -3.77380
   C       -1.42685         6.47669        -4.81236
   C       -0.34571         7.20352        -5.17134
   C        0.82430         6.36177        -5.10788
   C        2.09489         6.66819        -5.54651
   C        3.05266         5.74107        -6.05231
   C        4.01541         6.42743        -6.73604
   C        3.76000         7.82733        -6.62768
   N        4.59014         8.79989        -7.19855
   O        4.27208         9.98030        -7.10039
   O        5.58789         8.41686        -7.78466
   C        2.61776         8.02270        -5.83705
   C        2.17987         9.24412        -5.32460
   C        1.37115         9.42041        -4.22334
   C        0.87165        10.65219        -3.80310
   S       -0.00415        10.72335        -2.28537
   C       -0.37842        12.42333        -2.45441
   C        0.17168        12.88160        -3.65319
   C        0.88166        11.92178        -4.41078
   C        1.40869        12.48241        -5.60071
   C        1.12139        13.80471        -5.73244
   C        1.51256        14.70763        -6.84016
   S        0.16694        14.43478        -4.40433
   C       -1.14046        13.17248        -1.54742
   S       -1.66856        14.75850        -2.01710
   C       -2.52908        15.00133        -0.53009
   C       -2.37363        13.87636         0.32818
   C       -1.59726        12.83140        -0.25039
   C       -1.34266        11.66349         0.47722
   C       -1.85182        11.53021         1.75262
   C       -1.58616        10.35714         2.49841
   N       -1.35675         9.40332         3.08928
   C       -2.63310        12.56855         2.32770
   C       -3.13949        12.40665         3.64015
   N       -3.54957        12.27861         4.70143
   C       -2.88927        13.72648         1.62236
   C       -3.29591        16.11820        -0.19173
   C       -3.58988        17.24582        -0.92165
   C       -4.43625        18.34198        -0.49185
   C       -5.01288        18.51076         0.74220
   C       -5.82078        19.61377         1.09064
   N       -6.48477        20.48373         1.43656
   C       -4.87872        17.62848         1.83349
   N       -4.80568        16.94916         2.75744
   C       -4.56107        19.26392        -1.61700
   C       -3.77816        18.76708        -2.70000
   C       -3.14070        17.51225        -2.29112
   O       -2.38837        16.81972        -2.96152
   C       -3.70188        19.41757        -3.89794
   C       -4.42480        20.61836        -4.07488
   C       -5.21323        21.12112        -2.99959
   C       -5.26828        20.42634        -1.76826
   C       -5.93532        22.31622        -3.18889
   C       -5.88281        22.98431        -4.38269
   C       -5.10584        22.48893        -5.44001
   C       -4.39148        21.33087        -5.28929
   H        2.17693        -1.03319        -2.92161
   H       -1.69662        -0.24968        -5.96816
   H       -2.38115        -2.56110        -5.68057
   H       -2.04137        -4.78640        -4.68135
   H       -0.13051        -5.19642        -3.18235
   H        1.45520        -3.38357        -2.66785
   H        2.14731         4.20123        -3.81099
   H       -2.45327         6.78675        -4.77554
   H       -0.35098         8.20528        -5.55229
   H        2.94996         4.67461        -6.01611
   H        4.84014         6.01523        -7.28685
   H        2.60359        10.11879        -5.79485
   H        1.11433         8.56551        -3.61130
   H        1.98227        11.94862        -6.33494
   H        2.14740        14.18042        -7.54746
   H        2.05121        15.57281        -6.45520
   H        0.62911        15.07514        -7.36232
   H       -0.74510        10.86803         0.06184
   H       -3.47658        14.50202         2.09051
   H       -3.73963        16.06114         0.79191
   H       -3.10048        19.01940        -4.70171
   H       -5.87633        20.83392        -0.97662
   H       -6.53221        22.69440        -2.37213
   H       -6.44059        23.89859        -4.51800
   H       -5.07608        23.02840        -6.37468
   H       -3.79176        20.94417        -6.10022
*
