# ORCA input file
# SCF done       -218.198803804824          0.000728400675
! CAM-B3LYP def2-SVP def2/J RIJCOSX Grid4 TightSCF
%maxcore 5000
%tddft
    Mode sTDDFT
    Ethresh 5.0
    maxcore 5000
end

%pal
  nprocs 6
  end
* xyz 0 1
   C       -3.22412         0.10996        -0.44728
   S       -4.08089        -1.36417        -0.51071
   C       -1.87249        -0.05967        -0.52854
   C       -0.91278         1.06411        -0.49046
   O       -1.25705         2.22762        -0.40289
   C        0.46515         0.60706        -0.56171
   C        1.63477         1.33419        -0.56910
   N        2.67986         0.47489        -0.62778
   C        4.06530         0.85937        -0.72682
   C        4.47587         1.05688        -2.18463
   C        2.21858        -0.79621        -0.66624
   C        0.84111        -0.76739        -0.62350
   C       -0.09363        -1.87626        -0.64442
   O        0.24412        -3.05142        -0.64047
   C       -1.49864        -1.43440        -0.64938
   C       -2.60041        -2.26833        -0.67263
   C       -2.68061        -3.69475        -0.80647
   S       -3.79409        -4.56264         0.20461
   C       -3.38182        -6.07657        -0.53989
   C       -2.41548        -5.89253        -1.51876
   C       -2.03707        -4.54660        -1.68129
   C       -1.11814        -4.16282        -2.79588
   N       -1.44703        -2.82275        -3.32819
   O       -2.60979        -2.58223        -3.54809
   O       -0.52869        -2.06909        -3.53941
   C       -1.29170        -5.17050        -3.93790
   C       -0.91524        -6.56268        -3.44803
   C       -1.77875        -7.01652        -2.26591
   N       -0.92789        -7.84223        -1.31890
   O       -1.26602        -7.90064        -0.16730
   O        0.01936        -8.40360        -1.80285
   C       -3.98033        -7.30540        -0.18579
   C       -4.79558        -7.52421         0.87697
   C       -5.28058        -8.82556         1.14414
   N       -6.06025        -9.15926         2.22279
   C       -6.59299        -8.25236         3.20993
   C       -7.78936        -7.46960         2.67447
   C       -6.33845       -10.53689         2.26721
   O       -7.00711       -11.05408         3.14046
   C       -5.66416       -11.07709         1.10672
   C       -5.03419       -10.00551         0.43313
   C       -4.35250       -10.54629        -0.72137
   O       -3.68702       -10.01261        -1.59647
   N       -4.60458       -11.91791        -0.66780
   C       -4.10903       -12.81477        -1.68509
   C       -5.19603       -13.19604        -2.68668
   C       -5.38275       -12.26253         0.41869
   C       -5.74818       -13.58593         0.73430
   C       -6.48997       -13.90029         1.83696
   C       -6.83910       -15.21545         2.21622
   C       -6.57023       -16.41693         1.58722
   C       -7.07573       -17.48403         2.37697
   C       -7.71349       -16.85927         3.55409
   C       -7.57114       -15.51468         3.44099
   C       -8.39625       -17.50568         4.59155
   N       -8.98850       -17.98327         5.45228
   C       -6.97114       -18.83354         2.12822
   C       -7.35984       -19.89959         2.99112
   C       -7.05926       -21.09560         2.38909
   C       -6.49462       -20.81293         1.07881
   C       -6.41283       -19.46465         0.91902
   C       -5.90830       -18.81074        -0.20761
   N       -5.48750       -18.29024        -1.14289
   C       -7.27365       -22.41771         2.88447
   S       -7.56440       -23.69877         1.73091
   C       -7.34653       -22.89373         4.18285
   C       -6.98008       -22.14249         5.40232
   O       -6.47801       -21.03368         5.40376
   C       -7.23263       -22.90364         6.61818
   C       -7.10814       -22.49389         7.92713
   N       -7.42995       -23.52951         8.73854
   C       -7.49101       -23.46255        10.17693
   C       -8.84187       -22.92415        10.64403
   C       -7.76401       -24.60532         7.98788
   C       -7.65470       -24.26492         6.65654
   C       -7.87455       -25.06623         5.46525
   O       -8.19017       -26.24209         5.46274
   C       -7.68083       -24.28278         4.22564
   C       -7.82515       -24.82895         2.98124
   H       -3.74502         1.04278        -0.35434
   H        1.77156         2.39667        -0.53073
   H        4.67610         0.07741        -0.26828
   H        4.20903         1.78803        -0.16837
   H        4.33074         0.13733        -2.74636
   H        5.52309         1.33997        -2.24062
   H        3.87667         1.83921        -2.64395
   H        2.87702        -1.64054        -0.71777
   H       -0.07684        -4.12185        -2.45259
   H       -0.64880        -4.89600        -4.77583
   H       -2.33136        -5.14797        -4.27363
   H        0.13296        -6.55514        -3.14003
   H       -1.00489        -7.27533        -4.26750
   H       -2.54685        -7.73054        -2.59065
   H       -3.74489        -8.14740        -0.82104
   H       -5.04612        -6.71671         1.54981
   H       -5.80351        -7.57438         3.54602
   H       -6.90754        -8.87398         4.05289
   H       -7.50957        -6.87247         1.80943
   H       -8.17151        -6.80861         3.44728
   H       -8.58066        -8.15511         2.38114
   H       -3.68697       -13.70587        -1.21299
   H       -3.30692       -12.27664        -2.19780
   H       -6.02495       -13.69670        -2.19173
   H       -4.78424       -13.86487        -3.43699
   H       -5.57540       -12.30574        -3.18270
   H       -5.40451       -14.37575         0.08268
   H       -6.82717       -13.10323         2.48639
   H       -6.04596       -16.55101         0.66214
   H       -7.92697       -14.76857         4.12745
   H       -7.79560       -19.76730         3.95966
   H       -6.17945       -21.56319         0.37636
   H       -6.81578       -21.53647         8.31021
   H       -6.68750       -22.81012        10.52930
   H       -7.32801       -24.46613        10.57785
   H       -9.01064       -21.92756        10.24358
   H       -8.86649       -22.87364        11.72886
   H       -9.64598       -23.57314        10.30562
   H       -8.05104       -25.54026         8.42690
   H       -8.07279       -25.84777         2.75553
*
