# ORCA input file
# SCF done       -133.257026551419          0.000851835943
! CAM-B3LYP def2-SVP def2/J RIJCOSX Grid4 TightSCF
%maxcore 5000
%tddft
    Mode sTDDFT
    Ethresh 5.0
    maxcore 5000
end

%pal
  nprocs 6
  end
* xyz 0 1
   C       -2.07265        -2.61047        -3.89125
   C       -1.21356        -3.02171        -2.89015
   C       -0.28883        -4.03662        -3.15896
   C       -0.29955        -4.57215        -4.45387
   N       -1.11583        -4.17866        -5.40647
   C       -1.98558        -3.21963        -5.13563
   C        0.63423        -4.52508        -2.16028
   S        1.82189        -5.73357        -2.55173
   C        2.43767        -5.75535        -0.92839
   C        1.73166        -4.84825        -0.13363
   C        0.72323        -4.16396        -0.83821
   C        1.95557        -4.61299         1.23157
   N        2.10126        -4.38537         2.34801
   C        3.49624        -6.63929        -0.61136
   C        4.06674        -6.76507         0.61768
   C        5.09820        -7.69358         0.88527
   N        5.66495        -7.86120         2.12622
   C        5.30234        -7.16991         3.34089
   C        4.02695        -7.73505         3.96027
   C        6.64661        -8.86630         2.12552
   O        7.27958        -9.18668         3.11235
   C        6.68013        -9.33449         0.75637
   C        5.72658        -8.59545         0.02132
   C        5.75861        -9.06170        -1.34867
   O        5.12520        -8.73263        -2.33330
   N        6.73367       -10.06824        -1.35033
   C        7.09694       -10.75840        -2.56544
   C        8.40824       -10.23637        -3.14677
   C        7.29483       -10.25051        -0.10544
   C        8.27104       -11.22651         0.17596
   C        8.81271       -11.40125         1.41692
   C        9.76573       -12.39886         1.72510
   C       10.33213       -13.35040         0.89811
   C       11.22381       -14.16077         1.65102
   C       11.18043       -13.64032         3.03283
   C       10.31420       -12.59554         3.06070
   C       11.89135       -14.12988         4.13365
   N       12.46106       -14.51171         5.05585
   C       11.96782       -15.22507         1.19621
   C       12.85058       -16.06054         1.94676
   C       13.38021       -17.01897         1.12181
   C       12.84185       -16.80951        -0.21119
   C       11.99190       -15.74671        -0.18121
   C       11.27739       -15.25819        -1.27779
   N       10.70246       -14.87386        -2.19659
   C       14.31254       -18.06264         1.48137
   C       14.45459       -18.49436         2.80542
   C       15.36648       -19.48914         3.09870
   C       16.10199       -20.04164         2.05801
   N       15.99154       -19.63496         0.80476
   C       15.13383       -18.67630         0.52568
   H       -2.79557        -1.83045        -3.71040
   H       -1.25702        -2.56084        -1.91511
   H        0.39103        -5.36184        -4.72422
   H       -2.63484        -2.93139        -5.95094
   H        0.08867        -3.43607        -0.36505
   H        3.85322        -7.25886        -1.42461
   H        3.72550        -6.14833         1.43459
   H        5.19097        -6.10198         3.13589
   H        6.13921        -7.31289         4.03015
   H        3.18249        -7.62691         3.28352
   H        3.80257        -7.20348         4.88035
   H        4.15886        -8.78997         4.18867
   H        6.28236       -10.57363        -3.27124
   H        7.15861       -11.83299        -2.37299
   H        8.31775        -9.17806        -3.37956
   H        8.64360       -10.77551        -4.05987
   H        9.22782       -10.36776        -2.44389
   H        8.58512       -11.86923        -0.63326
   H        8.49963       -10.75427         2.22584
   H       10.14412       -13.48019        -0.14859
   H       10.05404       -11.99738         3.91452
   H       13.06496       -15.92409         2.98795
   H       13.06233       -17.41421        -1.07120
   H       13.84047       -18.06431         3.58252
   H       15.49443       -19.84299         4.10978
   H       16.80785       -20.84308         2.22971
   H       15.11163       -18.36503        -0.51008
*
