# ORCA input file
# SCF done       -160.140629293052          0.000662766337
! CAM-B3LYP def2-SVP def2/J RIJCOSX Grid4 TightSCF
%maxcore 5000
%tddft
    Mode sTDDFT
    Ethresh 5.0
    maxcore 5000
end

%pal
  nprocs 6
  end
* xyz 0 1
   C       -0.10032        -1.84118        -7.86294
   C        0.12094        -0.46446        -7.78625
   C        0.23256        -0.01444        -6.49273
   S        0.50947         1.59578        -5.89026
   C        0.65276         2.54520        -7.43167
   S        0.06159        -1.30144        -5.34830
   C       -0.16292        -2.47036        -6.63477
   C       -0.36524        -3.83189        -6.30992
   C       -0.53832        -4.83383        -7.21638
   C       -0.73170        -6.19374        -6.88640
   C       -0.79724        -6.79591        -5.64166
   C       -0.99631        -8.18668        -5.80648
   C       -1.04971        -8.40141        -7.25641
   C       -0.89668        -7.23641        -7.90218
   F       -1.22907        -9.60401        -7.82257
   C       -1.11728        -9.16173        -4.83121
   C       -1.30578       -10.55345        -4.99512
   C       -1.37473       -11.16043        -3.74732
   C       -1.22562       -10.11699        -2.73281
   C       -1.07354        -8.95252        -3.38307
   F       -0.90466        -7.75096        -2.81272
   C       -1.54843       -12.53607        -3.52556
   C       -1.62674       -13.12483        -2.29074
   C       -1.78130       -14.49069        -2.02468
   S       -1.88289       -14.99423        -0.35312
   C       -2.03843       -16.68899        -0.74517
   C       -2.01063       -16.82960        -2.12998
   C       -1.86925       -15.62089        -2.86020
   C       -1.84391       -15.85942        -4.25135
   C       -1.96297       -17.18667        -4.55246
   C       -1.97220       -17.81354        -5.87407
   O       -2.07940       -18.99915        -6.06729
   O       -1.84450       -16.90321        -6.85487
   C       -1.83689       -17.42473        -8.17573
   S       -2.11257       -18.21804        -3.15366
   C       -2.16094       -17.66816         0.25345
   C       -2.27450       -19.03811         0.08521
   C       -2.37339       -19.64934         1.36047
   C       -2.31314       -18.54781         2.32372
   C       -2.18569       -17.37457         1.68431
   F       -2.37578       -18.71806         3.65062
   C       -2.49945       -20.99245         1.65809
   C       -2.61048       -21.60841         2.93206
   C       -2.72398       -22.97361         2.76705
   C       -2.67833       -23.26423         1.33191
   C       -2.54894       -22.09352         0.69071
   F       -2.47057       -21.91872        -0.63503
   C       -2.86126       -23.99342         3.74558
   C       -2.98682       -23.77352         5.07646
   C       -3.13746       -24.77874         6.08798
   C       -3.84699       -24.50660         7.28904
   C       -3.96152       -25.58444         8.11088
   S       -4.80695       -25.60985         9.63843
   C       -4.51141       -27.31676        10.17755
   S       -3.16333       -26.98091         7.44896
   C       -2.67452       -26.08893         6.03569
   C       -1.79823       -26.69748         5.07853
   C       -1.56085       -28.00588         4.99005
   H       -0.21236        -2.36083        -8.79688
   H        0.19422         0.16899        -8.65088
   H        0.84217         3.57063        -7.13042
   H       -0.27824         2.48734        -7.98742
   H        1.48652         2.17001        -8.01740
   H       -0.37442        -4.07112        -5.25630
   H       -0.52530        -4.59586        -8.27179
   H       -0.71204        -6.30306        -4.69422
   H       -0.89110        -7.07001        -8.96197
   H       -1.38278       -11.06017        -5.93720
   H       -1.23358       -10.26224        -1.67090
   H       -1.62334       -13.14861        -4.41121
   H       -1.56670       -12.49325        -1.41498
   H       -1.74237       -15.11477        -5.01729
   H       -1.76507       -16.56675        -8.83892
   H       -2.75396       -17.98540        -8.36772
   H       -0.98304       -18.09106        -8.31492
   H       -2.28666       -19.55880        -0.85117
   H       -2.11459       -16.39330         2.11179
   H       -2.60395       -21.07889         3.86353
   H       -2.74237       -24.24432         0.90033
   H       -2.90515       -25.00612         3.36784
   H       -3.04942       -22.75397         5.43210
   H       -4.27942       -23.54941         7.51777
   H       -5.00661       -27.42305        11.13725
   H       -3.44398       -27.48599        10.28341
   H       -4.93930       -28.00531         9.45452
   H       -1.29288       -26.00832         4.41510
   H       -2.05526       -28.71436         5.63471
   H       -0.87185       -28.40627         4.26831
*
