# ORCA input file
# SCF done       -185.878970202415          0.000887826403
! CAM-B3LYP def2-SVP def2/J RIJCOSX Grid4 TightSCF
%maxcore 5000
%tddft
    Mode sTDDFT
    Ethresh 5.0
    maxcore 5000
end

%pal
  nprocs 6
  end
* xyz 0 1
   C       -1.53883         1.36341         1.53718
   C       -0.83287         0.20888         1.84736
   N       -1.26967        -1.09872         1.90911
   C       -2.65369        -1.45250         1.72347
   C       -2.99963        -1.69210         0.25377
   C       -0.20883        -1.90419         2.22766
   C        0.94218        -1.08942         2.42129
   C        0.54278         0.26249         2.15535
   C        1.21531         1.47711         2.15902
   C        0.50706         2.62119         1.85049
   C       -0.85075         2.56167         1.54465
   C        2.15165        -1.62981         2.81885
   C        2.22486        -2.99572         3.03762
   C        1.11780        -3.79887         2.84135
   C       -0.12248        -3.30009         2.41551
   C       -1.20070        -4.20632         2.11526
   C       -1.35547        -5.44369         2.63824
   C       -2.37268        -6.36155         2.25212
   S       -2.04660        -8.06729         2.37288
   C       -3.53366        -8.50199         1.56757
   C       -4.26088        -7.36353         1.25115
   C       -3.61405        -6.16410         1.65990
   N       -4.29472        -4.92298         1.57326
   O       -4.08845        -4.09624         2.44653
   O       -5.06977        -4.76787         0.65036
   C       -5.55946        -7.38280         0.70785
   N       -6.63205        -7.43321         0.30487
   C       -3.81772        -9.87227         1.32548
   C       -4.72490       -10.31703         0.41913
   C       -5.03690       -11.66884         0.14889
   S       -5.97604       -12.03941        -1.27299
   C       -5.96351       -13.75965        -0.98306
   C       -5.25229       -14.02368         0.20778
   C       -4.72998       -12.84611         0.82171
   N       -4.07866       -13.20955         1.95596
   C       -4.17693       -14.57186         2.07762
   N       -3.59842       -15.21897         3.18122
   O       -3.01093       -14.50736         3.98184
   O       -3.72203       -16.42468         3.26745
   C       -4.88408       -15.11321         1.02221
   C       -6.57573       -14.72838        -1.79693
   S       -6.55038       -16.39190        -1.25266
   C       -7.40900       -16.97049        -2.65616
   C       -7.68954       -15.91979        -3.51265
   C       -7.23074       -14.66171        -3.03506
   N       -7.43786       -13.50813        -3.79809
   O       -7.11271       -12.42465        -3.31549
   O       -7.92765       -13.62904        -4.90336
   C       -8.37472       -16.13271        -4.72459
   N       -8.93703       -16.43011        -5.67873
   C       -7.76320       -18.33304        -2.82789
   C       -7.47901       -19.29103        -1.91818
   C       -7.80394       -20.68816        -2.06814
   C       -8.11259       -21.55980        -1.00452
   N       -8.29209       -21.32781         0.33770
   C       -8.18741       -20.05613         1.00483
   C       -6.76686       -19.77245         1.49608
   C       -8.66278       -22.51001         0.95612
   C       -8.73216       -23.53088        -0.01884
   C       -8.38525       -22.92638        -1.27111
   C       -8.34056       -23.44132        -2.55535
   C       -8.03985       -22.58330        -3.59853
   C       -7.79259       -21.24520        -3.35499
   C       -9.12596       -24.82109         0.30612
   C       -9.46744       -25.08581         1.61579
   C       -9.40830       -24.08316         2.57478
   C       -9.00048       -22.78267         2.28806
   C       -8.94525       -21.81978         3.39588
   C       -9.93337       -21.64979         4.26221
   H       -2.58936         1.34071         1.29199
   H       -3.26337        -0.62925         2.10608
   H       -2.88811        -2.33343         2.32698
   H       -2.90176        -0.77039        -0.31519
   H       -4.02289        -2.04825         0.17004
   H       -2.33517        -2.42972        -0.19325
   H        2.26786         1.52141         2.39397
   H        1.00814         3.57739         1.84221
   H       -1.37763         3.47331         1.30505
   H        3.01460        -0.99671         2.95530
   H        3.15683        -3.44335         3.34756
   H        1.22530        -4.86456         2.97061
   H       -1.89737        -3.88102         1.36055
   H       -0.64393        -5.82617         3.35641
   H       -3.20325       -10.57431         1.87211
   H       -5.25144        -9.59892        -0.19299
   H       -3.63131       -12.63018         2.64903
   H       -5.08337       -16.15667         0.89516
   H       -8.31971       -18.55811        -3.72685
   H       -6.94137       -18.98403        -1.03233
   H       -8.87655       -20.06443         1.85342
   H       -8.51849       -19.27474         0.31409
   H       -6.45337       -20.52623         2.21393
   H       -6.72419       -18.79824         1.97609
   H       -6.05349       -19.79158         0.67529
   H       -8.54381       -24.48580        -2.73273
   H       -7.99538       -22.95513        -4.61052
   H       -7.53626       -20.60357        -4.18380
   H       -9.16794       -25.58833        -0.45113
   H       -9.78249       -26.07685         1.90519
   H       -9.66762       -24.31719         3.59662
   H       -8.01977       -21.27468         3.52605
   H      -10.86842       -22.17615         4.16423
   H       -9.84915       -20.97101         5.09364
*
