# ORCA input file
# SCF done       -175.495167233833          0.000657885592
! CAM-B3LYP def2-SVP def2/J RIJCOSX Grid4 TightSCF
%maxcore 5000
%tddft
    Mode sTDDFT
    Ethresh 5.0
    maxcore 5000
end

%pal
  nprocs 6
  end
* xyz 0 1
   C       -6.61512         1.01730        -2.95920
   C       -5.45174         0.33121        -2.63767
   N       -5.29072        -0.85170        -1.94700
   C       -6.40404        -1.63045        -1.46731
   C       -6.89776        -1.15545        -0.10297
   C       -3.95391        -1.13598        -1.86606
   C       -3.22539        -0.12812        -2.55531
   C       -4.18850         0.82189        -3.03293
   C       -4.08951         2.00245        -3.75701
   C       -5.25044         2.67874        -4.07413
   C       -6.49408         2.19017        -3.67971
   C       -1.84977        -0.20170        -2.69132
   C       -1.19018        -1.29654        -2.15857
   C       -1.89171        -2.28638        -1.49437
   C       -3.27907        -2.23516        -1.30260
   C       -3.92109        -3.24992        -0.50164
   C       -3.54817        -4.55000        -0.52897
   C       -4.02223        -5.63849         0.25475
   S       -3.45129        -7.20564        -0.26471
   C       -4.23053        -8.03593         1.04999
   C       -4.87471        -7.12602         1.87150
   C       -4.77961        -5.77964         1.41735
   N       -5.42458        -4.76827         2.16887
   O       -5.78626        -3.75024         1.60231
   O       -5.60539        -4.99043         3.35078
   C       -5.59693        -7.54758         3.00452
   N       -6.17843        -7.99352         3.88680
   C       -4.20663        -9.44645         1.19987
   C       -3.65807       -10.28602         0.29153
   C       -3.65245       -11.70332         0.38121
   S       -3.05602       -12.62104        -0.99613
   C       -3.40616       -14.08931        -0.18445
   N       -3.27184       -15.35611        -0.56449
   C       -3.66555       -16.16793         0.36884
   S       -4.27245       -15.37855         1.84709
   C       -3.94357       -13.86272         1.09691
   C       -4.08448       -12.51429         1.41380
   C       -3.66798       -17.57986         0.24057
   S       -4.57740       -18.58219         1.33182
   C       -4.19285       -20.02021         0.43359
   C       -3.40768       -19.71424        -0.67345
   C       -3.09892       -18.33742        -0.76554
   N       -2.22789       -17.82486        -1.79007
   O       -1.33098       -17.09584        -1.44129
   O       -2.44123       -18.20617        -2.91773
   C       -2.96478       -20.70137        -1.57235
   N       -2.63361       -21.54732        -2.27146
   C       -4.64277       -21.31415         0.80794
   C       -5.37912       -21.57701         1.90537
   C       -5.77735       -22.90561         2.33180
   C       -6.37088       -23.91419         1.55058
   N       -6.98307       -23.88132         0.31882
   C       -7.21657       -22.69210        -0.46652
   C       -6.40478       -22.66155        -1.76072
   C       -7.47190       -25.14546         0.02323
   C       -7.13948       -26.01660         1.08743
   C       -6.48350       -25.22389         2.08289
   C       -6.06286       -25.53319         3.36618
   C       -5.56654       -24.51601         4.15942
   C       -5.44727       -23.23383         3.65181
   C       -7.46334       -27.36588         1.06465
   C       -8.12326       -27.85612        -0.04102
   C       -8.46812       -27.00472        -1.08186
   C       -8.17504       -25.64250        -1.08576
   C       -8.65920       -24.85781        -2.22830
   C       -8.57408       -25.26565        -3.48690
   H       -7.58813         0.65871        -2.66048
   H       -6.10476        -2.67997        -1.42022
   H       -7.21180        -1.54252        -2.20123
   H       -6.12213        -1.25880         0.65045
   H       -7.74936        -1.75306         0.20822
   H       -7.19622        -0.11078        -0.15145
   H       -3.12532         2.37999        -4.06169
   H       -5.19940         3.59998        -4.63473
   H       -7.38459         2.74187        -3.94228
   H       -1.30925         0.57640        -3.20764
   H       -0.11789        -1.37821        -2.25106
   H       -1.34670        -3.10839        -1.05508
   H       -4.70580        -2.93258         0.16625
   H       -2.81725        -4.85338        -1.26982
   H       -4.68940        -9.82702         2.08894
   H       -3.20460        -9.86994        -0.59951
   H       -4.47576       -12.14677         2.34357
   H       -4.34110       -22.11895         0.15264
   H       -5.58133       -20.76832         2.60039
   H       -6.96752       -21.83089         0.15463
   H       -8.28344       -22.62538        -0.69706
   H       -5.34432       -22.79201        -1.56684
   H       -6.54754       -21.70674        -2.25965
   H       -6.72262       -23.45461        -2.43134
   H       -6.15089       -26.54083         3.74112
   H       -5.26152       -24.71612         5.17494
   H       -5.02777       -22.45754         4.27531
   H       -7.19861       -28.00543         1.89213
   H       -8.38780       -28.90092        -0.10018
   H       -9.01744       -27.40384        -1.92132
   H       -9.15832       -23.92414        -2.00931
   H       -8.07781       -26.18343        -3.75516
   H       -8.97896       -24.68527        -4.29830
*
