# ORCA input file
# SCF done       -192.654837652573          0.000503685896
! CAM-B3LYP def2-SVP def2/J RIJCOSX Grid4 TightSCF
%maxcore 5000
%tddft
    Mode sTDDFT
    Ethresh 5.0
    maxcore 5000
end

%pal
  nprocs 6
  end
* xyz 0 1
   C       -1.55188         0.70249        -6.14313
   C       -2.27279        -0.44138        -6.45985
   N       -2.46830        -1.59074        -5.72397
   C       -1.90672        -1.77351        -4.40978
   C       -2.81004        -1.19832        -3.32065
   C       -3.27083        -2.44155        -6.43721
   C       -3.57477        -1.84058        -7.69091
   C       -2.94393        -0.55295        -7.69642
   C       -2.88706         0.47949        -8.62322
   C       -2.16530         1.61144        -8.30284
   C       -1.50840         1.71813        -7.07870
   C       -4.33014        -2.49909        -8.64561
   C       -4.78244        -3.77603        -8.36265
   C       -4.48437        -4.37356        -7.15145
   C       -3.73676        -3.73996        -6.14924
   C       -3.52644        -4.41758        -4.89002
   C       -3.37973        -5.75747        -4.79564
   C       -3.26322        -6.56246        -3.62611
   S       -3.43067        -8.27770        -3.88062
   C       -3.32381        -8.65288        -2.18174
   C       -3.16997        -7.48659        -1.44947
   C       -3.11969        -6.31536        -2.26485
   N       -2.85880        -5.06125        -1.66213
   O       -2.26635        -4.21797        -2.31659
   O       -3.21701        -4.90382        -0.51147
   C       -2.98531        -7.44900        -0.05385
   N       -2.80205        -7.45393         1.07871
   C       -3.38576       -10.02238        -1.79841
   C       -3.43204       -10.48586        -0.53044
   C       -3.46008       -11.86665        -0.13233
   C       -3.66420       -12.17335         1.23706
   O       -3.86786       -11.12325         2.06474
   C       -4.02923       -11.35452         3.44506
   C       -3.65351       -13.49595         1.63767
   C       -3.43498       -14.55614         0.74748
   C       -3.25522       -14.24768        -0.62511
   C       -3.27187       -12.92403        -1.02633
   O       -3.08660       -15.28335        -1.48634
   C       -3.01247       -15.04274        -2.87888
   C       -2.92109       -16.39708        -3.56577
   C       -3.42362       -15.87917         1.30988
   C       -2.99349       -17.00918         0.70480
   C       -2.99245       -18.34038         1.21266
   S       -2.17935       -19.50095         0.19461
   C       -2.59629       -20.85213         1.20846
   C       -3.36620       -20.41953         2.27549
   C       -3.57502       -19.00662         2.28498
   N       -4.35562       -18.44245         3.32857
   O       -4.10132       -17.31428         3.71093
   O       -5.23420       -19.14095         3.79511
   C       -3.85338       -21.27047         3.28541
   N       -4.20561       -21.99600         4.10155
   C       -2.12856       -22.14453         0.82782
   C       -2.30650       -23.29624         1.50651
   C       -1.75652       -24.56040         1.06791
   C       -1.65708       -24.97475        -0.26987
   N       -2.22443       -24.45051        -1.41678
   C       -3.49408       -23.75436        -1.45099
   C       -4.56075       -24.46088        -0.61737
   C       -1.74789       -25.18081        -2.49613
   C       -0.91906       -26.22623        -2.03308
   C       -0.87132       -26.10395        -0.60382
   C       -0.26355       -26.87227         0.37682
   C       -0.45805       -26.52531         1.70188
   C       -1.19045       -25.39789         2.03442
   C       -0.34498       -27.13007        -2.91582
   C       -0.59794       -26.97622        -4.26397
   C       -1.37384       -25.91982        -4.72343
   C       -1.95081       -24.98558        -3.86721
   C       -2.64292       -23.82082        -4.42658
   C       -3.45598       -23.86156        -5.47309
   H       -1.03948         0.80938        -5.19943
   H       -0.93661        -1.26949        -4.38586
   H       -1.73226        -2.83554        -4.23183
   H       -2.87696        -0.11624        -3.40853
   H       -2.40898        -1.45469        -2.34494
   H       -3.81512        -1.60720        -3.39991
   H       -3.39914         0.39614        -9.56987
   H       -2.10778         2.42907        -9.00561
   H       -0.95367         2.61742        -6.85504
   H       -4.55602        -2.02316        -9.58732
   H       -5.37964        -4.31115        -9.08539
   H       -4.88576        -5.35440        -6.94610
   H       -3.51612        -3.81244        -3.99898
   H       -3.36559        -6.33795        -5.71022
   H       -3.41305       -10.70791        -2.63522
   H       -3.45702        -9.78219         0.28722
   H       -4.13857       -10.36725         3.89032
   H       -3.15380       -11.85134         3.87331
   H       -4.92496       -11.94832         3.65067
   H       -3.80262       -13.74888         2.67537
   H       -3.11425       -12.68519        -2.06431
   H       -2.12507       -14.43895        -3.11316
   H       -3.90858       -14.50524        -3.21699
   H       -2.02864       -16.92317        -3.23735
   H       -2.87759       -16.26283        -4.64253
   H       -3.79106       -16.99846        -3.31598
   H       -3.76685       -15.93067         2.33336
   H       -2.56905       -16.93655        -0.28540
   H       -1.53659       -22.15768        -0.07901
   H       -2.78852       -23.28694         2.47326
   H       -3.82165       -23.73181        -2.49111
   H       -3.38228       -22.72301        -1.10096
   H       -4.62974       -25.50778        -0.90481
   H       -5.52450       -23.98804        -0.78678
   H       -4.33378       -24.40621         0.44405
   H        0.33378       -27.72966         0.10766
   H       -0.02009       -27.12323         2.48652
   H       -1.29149       -25.11680         3.07239
   H        0.28647       -27.92602        -2.55242
   H       -0.16883       -27.66475        -4.97632
   H       -1.50693       -25.78804        -5.78688
   H       -2.41373       -22.87078        -3.95735
   H       -3.71443       -24.79004        -5.95431
   H       -3.90761       -22.97120        -5.87621
*
