# ORCA input file
# SCF done       -179.078333875777          0.000848397071
! CAM-B3LYP def2-SVP def2/J RIJCOSX Grid4 TightSCF
%maxcore 5000
%tddft
    Mode sTDDFT
    Ethresh 5.0
    maxcore 5000
end

%pal
  nprocs 6
  end
* xyz 0 1
   C       -8.15854         0.21310        -3.57763
   C       -7.22700        -0.24265        -2.65494
   N       -6.62684        -1.48159        -2.55019
   C       -7.00057        -2.58918        -3.39419
   C       -6.23439        -2.60597        -4.71553
   C       -5.75801        -1.46198        -1.49208
   C       -5.82731        -0.18824        -0.86344
   C       -6.75433         0.59871        -1.62554
   C       -7.22003         1.90188        -1.51509
   C       -8.14669         2.34890        -2.43583
   C       -8.60732         1.51412        -3.45135
   C       -5.10530         0.08616         0.28433
   C       -4.31613        -0.91625         0.82601
   C       -4.23786        -2.15613         0.22114
   C       -4.92345        -2.46764        -0.96285
   C       -4.69724        -3.72511        -1.62341
   C       -4.37436        -4.87867        -0.98942
   C       -4.17869        -6.16403        -1.56038
   S       -4.02692        -7.46566        -0.40901
   C       -4.01570        -8.69051        -1.64688
   C       -4.11732        -8.10285        -2.89891
   C       -4.19107        -6.68547        -2.85863
   N       -4.24354        -5.97398        -4.08458
   O       -3.84409        -4.82332        -4.11671
   O       -4.67676        -6.57132        -5.05035
   C       -4.09013        -8.87389        -4.07972
   N       -4.02787        -9.57149        -4.98679
   C       -3.95770       -10.07802        -1.36661
   C       -3.83078       -10.59393        -0.12182
   C       -3.85591       -11.99311         0.15566
   N       -3.68433       -12.37753         1.41027
   N       -3.79694       -13.61193         1.81135
   C       -4.11187       -14.60812         1.00730
   C       -4.20228       -14.35908        -0.39228
   C       -4.06987       -13.00067        -0.83831
   N       -4.12394       -13.02067        -2.15451
   O       -4.26497       -14.29517        -2.49929
   N       -4.31190       -15.11939        -1.46278
   C       -4.32777       -15.90833         1.57696
   S       -3.37647       -16.43995         2.91881
   C       -4.17211       -17.99092         2.94977
   C       -5.14311       -18.06627         1.95659
   C       -5.22954       -16.88026         1.18711
   N       -6.24755       -16.69202         0.20332
   O       -6.59886       -15.55027        -0.02067
   O       -6.70947       -17.68254        -0.31335
   C       -5.96748       -19.19573         1.79888
   N       -6.61216       -20.14206         1.74542
   C       -3.84179       -19.01572         3.87616
   C       -2.85584       -18.90310         4.79180
   C       -2.53577       -19.90731         5.77900
   C       -1.24157       -20.16071         6.27323
   N       -0.01456       -19.70041         5.86536
   C        0.22616       -18.74389         4.81628
   C        0.25400       -17.30883         5.34229
   C        0.96711       -20.27923         6.65115
   C        0.35376       -21.14221         7.58756
   C       -1.05465       -21.09457         7.32463
   C       -2.11942       -21.78681         7.87651
   C       -3.38545       -21.56493         7.36396
   C       -3.57950       -20.65548         6.33986
   C        1.10160       -21.83856         8.52699
   C        2.46786       -21.65468         8.53749
   C        3.07322       -20.80915         7.61460
   C        2.35578       -20.11783         6.64556
   C        3.11540       -19.29049         5.68735
   C        3.75449       -18.18496         6.02921
   H       -8.52550        -0.41460        -4.37489
   H       -8.07284        -2.50084        -3.59803
   H       -6.84512        -3.51916        -2.84039
   H       -6.39309        -1.67393        -5.25240
   H       -6.58477        -3.42848        -5.33366
   H       -5.16558        -2.72885        -4.55788
   H       -6.86188         2.54814        -0.72840
   H       -8.52152         3.35928        -2.37318
   H       -9.33077         1.89278        -4.15785
   H       -5.16297         1.05926         0.74673
   H       -3.74362        -0.72611         1.72096
   H       -3.57511        -2.89786         0.63918
   H       -4.74881        -3.71345        -2.69811
   H       -4.32337        -4.88157         0.09240
   H       -4.03735       -10.74028        -2.22004
   H       -3.72453        -9.95366         0.74349
   H       -4.41335       -19.92900         3.78230
   H       -2.30199       -17.97457         4.81555
   H       -0.55075       -18.86677         4.05650
   H        1.18621       -18.97184         4.35273
   H       -0.63580       -17.08829         5.92769
   H        0.31182       -16.60867         4.51321
   H        1.12330       -17.16603         5.97991
   H       -1.95803       -22.48831         8.68003
   H       -4.23376       -22.09454         7.76929
   H       -4.58279       -20.47207         5.98726
   H        0.61893       -22.49679         9.23245
   H        3.07983       -22.17008         9.26197
   H        4.14656       -20.68854         7.63284
   H        3.18961       -19.67521         4.67606
   H        3.71159       -17.80003         7.03516
   H        4.34015       -17.62103         5.32315
*
