# ORCA input file
# SCF done       -208.271697982953          0.000613834782
! CAM-B3LYP def2-SVP def2/J RIJCOSX Grid4 TightSCF
%maxcore 5000
%tddft
    Mode sTDDFT
    Ethresh 5.0
    maxcore 5000
end

%pal
  nprocs 6
  end
* xyz 0 1
   C        5.32192        -4.34322         6.23471
   C        5.79072        -5.21313         7.20883
   F        6.11981        -4.72356         8.40816
   C        5.92608        -6.58082         6.96796
   F        6.38173        -7.38306         7.93680
   C        5.59275        -7.11605         5.73420
   C        5.12651        -6.24923         4.76580
   C        4.98579        -4.87029         4.99782
   C        4.47014        -4.23668         3.78194
   C        4.20911        -2.89951         3.64053
   C        4.40878        -1.94359         4.66040
   N        4.54703        -1.11856         5.44574
   C        3.70931        -2.27491         2.47709
   N        3.30569        -1.68960         1.57570
   C        4.29718        -5.28149         2.79250
   C        4.70646        -6.55651         3.38465
   O        4.70767        -7.65549         2.85834
   C        3.82711        -5.11845         1.51059
   C        3.62355        -6.06640         0.50447
   S        3.90717        -7.79122         0.56288
   C        3.34243        -8.03105        -1.06509
   C        2.96377        -6.81501        -1.65965
   C        3.12762        -5.73213        -0.76387
   S        2.68547        -4.21721        -1.45398
   C        2.30387        -5.02786        -2.95231
   C        1.83181        -4.19770        -4.07031
   O        1.66835        -3.00558        -3.99037
   O        1.62960        -4.93091        -5.16638
   C        1.15013        -4.24242        -6.32431
   C       -0.36094        -4.07086        -6.28068
   C        2.49386        -6.37820        -2.92137
   C        3.31263        -9.34767        -1.56532
   C        2.72041        -9.73644        -2.72796
   C        2.70053       -11.06779        -3.19320
   C        2.03299       -11.58779        -4.31165
   N        1.28071       -10.75858        -5.19034
   O        1.60592        -9.59023        -5.29514
   O        0.34930       -11.25764        -5.78950
   C        2.16093       -12.98497        -4.47405
   C        1.59672       -13.78381        -5.59365
   C        2.94517       -13.54322        -3.47050
   S        3.49756       -12.34346        -2.33082
   C        3.31214       -14.89443        -3.26505
   S        2.65811       -16.22801        -4.17460
   C        3.54402       -17.43259        -3.27306
   C        4.34574       -16.80616        -2.30942
   C        4.19625       -15.39286        -2.31659
   S        5.20104       -14.61316        -1.14091
   C        5.82457       -16.16747        -0.65898
   C        6.84337       -16.25512         0.39576
   O        7.23046       -17.29378         0.86856
   O        7.27604       -15.03937         0.73737
   C        8.27084       -14.96496         1.76086
   C        7.64055       -14.97510         3.14537
   C        5.29181       -17.21865        -1.34303
   C        3.35567       -18.78271        -3.61284
   C        3.90271       -19.85938        -2.97560
   C        3.65907       -21.17704        -3.40100
   C        4.21833       -22.32926        -2.92027
   C        3.55522       -23.62856        -3.19955
   O        2.67794       -23.83950        -4.00376
   C        4.16167       -24.58417        -2.24504
   C        5.18879       -23.94236        -1.53048
   C        5.87961       -24.62703        -0.54389
   C        5.52755       -25.94650        -0.30022
   C        4.51673       -26.58085        -1.02368
   C        3.81855       -25.90072        -2.00873
   F        4.21497       -27.85701        -0.75869
   F        6.17251       -26.62258         0.65587
   C        5.33498       -22.57497        -2.03672
   C        6.44699       -21.79223        -1.86422
   C        6.70237       -20.59427        -2.56371
   N        6.98413       -19.63275        -3.12417
   C        7.53716       -22.14983        -1.04117
   N        8.44469       -22.38939        -0.38158
   H        5.23659        -3.29603         6.47357
   H        5.69548        -8.17223         5.54311
   H        3.56070        -4.11446         1.20149
   H        1.45259        -4.86888        -7.16545
   H        1.64237        -3.26628        -6.38484
   H       -0.84522        -5.03819        -6.17142
   H       -0.69951        -3.60548        -7.20166
   H       -0.64018        -3.43643        -5.44291
   H        2.31133        -6.99481        -3.78159
   H        3.78102       -10.09722        -0.93823
   H        2.21678        -9.00815        -3.34263
   H        0.81449       -14.44662        -5.22347
   H        2.37164       -14.40071        -6.04745
   H        1.15581       -13.14261        -6.35056
   H        8.79870       -14.02808         1.57272
   H        8.95519       -15.81186         1.64775
   H        6.92447       -14.16212         3.23942
   H        8.41550       -14.85522         3.89660
   H        7.13014       -15.92007         3.31538
   H        5.61411       -18.22461        -1.15743
   H        2.72214       -18.96421        -4.47270
   H        4.51273       -19.70498        -2.10205
   H        2.88434       -21.32420        -4.14669
   H        6.66401       -24.17965         0.04443
   H        3.03474       -26.38773        -2.56660
*
