# ORCA input file
# SCF done       -168.842378918359          0.000565042191
! CAM-B3LYP def2-SVP def2/J RIJCOSX Grid4 TightSCF
%maxcore 5000
%tddft
    Mode sTDDFT
    Ethresh 5.0
    maxcore 5000
end

%pal
  nprocs 6
  end
* xyz 0 1
   C        1.74808        11.45744        -6.45592
   S        3.04281        10.51070        -5.86172
   C        2.45425        10.67107        -4.22530
   C        1.30913        11.44256        -4.18390
   C        0.90658        11.88260        -5.46809
   C       -0.28854        12.74342        -5.69284
   S        0.24825        14.43948        -6.20630
   C       -1.19297        12.79011        -4.46525
   C       -0.38342        12.97519        -3.18698
   C        0.52846        11.77288        -2.95014
   C        3.11863        10.06234        -3.12482
   C        4.27321         9.36572        -3.19134
   C        4.91453         8.80492        -2.04521
   C        4.41564         8.67976        -0.77913
   C        5.34910         8.17721         0.15448
   C        5.21279         7.96266         1.53751
   C        6.35491         7.50210         2.20744
   C        7.51789         7.21007         1.45105
   N        7.64520         7.37514         0.15315
   C        6.59173         7.86855        -0.46433
   S        6.57264         8.22656        -2.15860
   S        8.83435         6.62896         2.43857
   C        7.84825         6.84599         3.85948
   C        6.59980         7.30287         3.59984
   F        5.70595         7.59020         4.55700
   F        8.35346         6.57488         5.05905
   C        3.94389         8.22520         2.19553
   C        3.14389         7.38090         2.93040
   C        3.44405         5.93889         3.20736
   C        3.24719         5.56359         4.67492
   C        1.92485         7.99017         3.28885
   C        1.77282         9.27234         2.82195
   S        3.19022         9.77304         1.94823
   C        0.61620        10.10391         2.89303
   C        0.43692        11.17813         2.09801
   C       -0.73454        11.99189         2.04815
   C       -1.77109        12.09245         2.93077
   C       -2.78827        12.97906         2.50353
   C       -3.97272        13.36667         3.14665
   C       -4.80546        14.24885         2.44586
   C       -4.37374        14.74185         1.18994
   N       -3.24309        14.42644         0.59839
   C       -2.48652        13.56452         1.24435
   S       -0.96178        13.02051         0.63693
   S       -5.51980        15.83915         0.46802
   C       -6.58447        15.60430         1.82728
   C       -6.09675        14.76269         2.77004
   F       -6.77809        14.42105         3.87639
   F       -7.75936        16.22480         1.85873
   C       -4.30799        12.88538         4.47877
   S       -4.51809        11.19266         4.77307
   C       -4.84570        11.47777         6.46059
   C       -4.78286        12.81901         6.75662
   C       -4.46654        13.61834         5.62687
   C       -4.29236        15.10179         5.71355
   S       -2.79123        15.67145         4.80460
   C       -4.24707        15.58266         7.15851
   C       -5.36811        14.91846         7.94943
   C       -5.07320        13.42771         8.09198
   C       -5.14160        10.32513         7.27382
   C       -5.08664        10.24056         8.60033
   H        1.67713        11.66312        -7.50584
   H       -0.84744        12.40567        -6.56955
   H        1.02932        14.67014        -5.15394
   H       -1.74757        11.84961        -4.40895
   H       -1.91307        13.60161        -4.57867
   H       -1.05499        13.09723        -2.33644
   H        0.21915        13.88326        -3.26188
   H       -0.08075        10.90502        -2.67509
   H        1.20095        11.97885        -2.11518
   H        2.63821        10.20150        -2.16654
   H        4.77697         9.24784        -4.14063
   H        3.40610         8.93839        -0.52308
   H        4.46539         5.70823         2.90080
   H        2.77360         5.33004         2.59122
   H        3.86193         6.18923         5.31537
   H        3.52817         4.52481         4.83065
   H        2.20855         5.68421         4.97104
   H        1.15405         7.48465         3.84235
   H       -0.15964         9.78535         3.57514
   H        1.21239        11.43448         1.38747
   H       -1.80643        11.55942         3.86308
   H       -5.10319        15.61013         5.18488
   H       -1.91355        15.01440         5.56108
   H       -4.34141        16.66908         7.17929
   H       -3.28430        15.31920         7.60514
   H       -6.31633        15.05993         7.42734
   H       -5.45113        15.37392         8.93701
   H       -5.92145        12.91329         8.54877
   H       -4.20698        13.29476         8.74891
   H       -5.41163         9.44463         6.70293
   H       -4.78220        11.05560         9.22965
   H       -5.33372         9.31992         9.09983
*
