# ORCA input file
# SCF done        -88.579488228983          0.000837983380
! CAM-B3LYP def2-SVP def2/J RIJCOSX Grid4 TightSCF
%maxcore 5000
%tddft
    Mode sTDDFT
    Ethresh 5.0
    maxcore 5000
end

%pal
  nprocs 6
  end
* xyz 0 1
   C        0.20093        -0.61732         0.60318
   N       -0.03144         0.67917         0.24600
   C       -0.99081         0.66030        -0.71075
   N       -1.38128        -0.54829        -0.98322
   C       -0.64738        -1.37581        -0.17059
   C       -0.83217        -2.79733        -0.21472
   N       -1.74764        -3.34957        -1.04686
   C       -1.73750        -4.70886        -0.90650
   C       -0.77539        -5.02421         0.05432
   C       -0.21197        -3.82764         0.48449
   C       -2.56322        -5.56397        -1.61104
   C       -3.23457        -6.41737        -2.16252
   C       -4.04864        -7.29501        -2.84064
   C       -4.14663        -8.67788        -2.69102
   N       -3.34555        -9.34154        -1.73917
   O       -2.42362        -8.71796        -1.23657
   O       -3.61249       -10.49754        -1.45223
   C       -5.09845        -9.29217        -3.55381
   C       -5.32571       -10.76094        -3.65841
   C       -5.74532        -8.36807        -4.34072
   S       -5.16909        -6.73513        -4.03710
   C       -6.77766        -8.55164        -5.31306
   N       -7.06817        -7.57901        -6.22832
   C       -8.10125        -7.97875        -7.02473
   C       -8.48997        -9.24157        -6.60159
   C       -7.66677        -9.59761        -5.53316
   C       -8.61392        -7.19316        -8.05515
   C       -9.07886        -6.52909        -8.95542
   C       -9.62331        -5.77983        -9.99611
   N       -9.37376        -4.43945       -10.18505
   C      -10.07001        -4.06436       -11.28395
   N      -10.73713        -5.05913       -11.80105
   C      -10.47725        -6.13289       -11.02259
   H        0.91795        -0.89210         1.34703
   H        0.42814         1.48910         0.62846
   H       -1.37216         1.54597        -1.17809
   H       -2.32924        -2.80765        -1.66527
   H       -0.53710        -6.01677         0.38000
   H        0.55924        -3.71251         1.21967
   H       -4.44757       -11.30759        -3.32724
   H       -5.55781       -11.02979        -4.68631
   H       -6.15574       -11.06157        -3.01949
   H       -6.58194        -6.70074        -6.30719
   H       -9.28330        -9.82491        -7.02407
   H       -7.73908       -10.50236        -4.96651
   H       -8.78477        -3.86568        -9.60392
   H      -10.06302        -3.06435       -11.66961
   H      -10.90460        -7.09264       -11.23000
*
