# ORCA input file
# SCF done       -148.192332920633          0.000805667444
! CAM-B3LYP def2-SVP def2/J RIJCOSX Grid4 TightSCF
%maxcore 5000
%tddft
    Mode sTDDFT
    Ethresh 5.0
    maxcore 5000
end

%pal
  nprocs 6
  end
* xyz 0 1
   C        0.85376        -0.24233        -3.74190
   S       -0.69762        -0.29821        -3.03255
   C       -1.04174        -1.87196        -3.68765
   C        0.04570        -2.33046        -4.44179
   C        1.12424        -1.37976        -4.46194
   C        2.31570        -1.68337        -5.18739
   C        3.36937        -0.74837        -5.20733
   N        4.22473         0.01708        -5.22125
   C        2.41316        -2.88175        -5.85211
   C        1.35455        -3.80604        -5.82104
   C        0.19810        -3.54695        -5.13763
   C       -2.29930        -2.46363        -3.40041
   C       -3.28437        -1.90784        -2.60385
   C       -4.40884        -2.72699        -2.51262
   C       -4.29540        -3.92563        -3.24681
   S       -2.77687        -4.03022        -4.05182
   C       -5.48022        -4.63443        -3.05367
   C       -6.29144        -3.85355        -2.20446
   N       -5.62761        -2.69659        -1.88644
   C       -7.52039        -4.44631        -1.90485
   C       -7.66279        -5.67311        -2.52136
   S       -6.25417        -6.10938        -3.49113
   C       -8.75745        -6.56995        -2.40725
   C       -8.82008        -7.75020        -3.06435
   C       -9.85507        -8.71286        -2.95447
   S      -11.39284        -8.30635        -2.23968
   C      -12.02357        -9.85851        -2.63203
   C      -11.12881       -10.65334        -3.27101
   C      -11.42194       -12.05034        -3.70821
   C       -9.86027       -10.01533        -3.44678
   C       -8.73995       -10.68318        -4.04930
   C       -7.43669       -10.44715        -3.78099
   C       -6.35799       -11.08094        -4.45825
   C       -5.06606       -10.74249        -4.23414
   C       -3.93145       -11.29151        -4.88856
   C       -3.85136       -12.33049        -5.79552
   C       -2.53761       -12.55570        -6.20889
   C       -1.59730       -11.68121        -5.62312
   S       -2.35702       -10.57924        -4.54125
   C       -0.34615       -12.02642        -6.13730
   C       -0.55138       -13.10879        -7.02029
   N       -1.88664       -13.41909        -7.05155
   C        0.61851       -13.57605        -7.61892
   C        1.72333       -12.85480        -7.21053
   S        1.31443       -11.58082        -6.06848
   C        3.08415       -12.99547        -7.59306
   C        3.58588       -14.01076        -8.33039
   C        4.95553       -14.10771        -8.72209
   S        5.71515       -15.67007        -8.73654
   C        7.24772       -15.01653        -9.09896
   C        7.20567       -13.64714        -9.24036
   C        5.88000       -13.11921        -9.05123
   C        5.66836       -11.73557        -9.31969
   C        4.38216       -11.15837        -9.39874
   N        3.37583       -10.62376        -9.53687
   C        6.74341       -10.93196        -9.63066
   C        8.04892       -11.45083        -9.71711
   C        8.28259       -12.78329        -9.55179
   H        1.48313         0.61268        -3.59684
   H        3.31246        -3.11616        -6.40248
   H        1.46556        -4.73964        -6.35072
   H       -0.59572        -4.27533        -5.13013
   H       -3.17093        -0.95450        -2.12003
   H       -5.97048        -1.95987        -1.29542
   H       -8.27751        -4.01845        -1.27322
   H       -9.54959        -6.28170        -1.72829
   H       -8.01852        -7.99860        -3.74745
   H      -13.03369       -10.09333        -2.35873
   H      -12.43566       -12.32851        -3.43169
   H      -10.72629       -12.74731        -3.24239
   H      -11.31987       -12.14016        -4.78956
   H       -8.98719       -11.46071        -4.76179
   H       -7.16393        -9.74741        -3.00368
   H       -6.60388       -11.82932        -5.19908
   H       -4.85332        -9.96538        -3.51097
   H       -4.70381       -12.89324        -6.12789
   H       -2.31367       -14.13833        -7.60820
   H        0.66645       -14.38324        -8.32595
   H        3.74971       -12.22441        -7.23039
   H        2.95791       -14.85367        -8.58414
   H        8.09894       -15.66092        -9.18788
   H        6.57465        -9.88482        -9.83501
   H        8.85988       -10.77831        -9.95214
   H        9.27166       -13.20057        -9.66491
*
