# ORCA input file
# SCF done       -136.236433525878          0.000740021303
! CAM-B3LYP def2-SVP def2/J RIJCOSX Grid4 TightSCF
%maxcore 5000
%tddft
    Mode sTDDFT
    Ethresh 5.0
    maxcore 5000
end

%pal
  nprocs 6
  end
* xyz 0 1
   C       -2.14890        -8.89683        -3.02678
   S       -2.72481        -7.42857        -2.39055
   C       -1.14244        -6.70908        -2.35553
   C       -0.18970        -7.62251        -2.83798
   C       -0.78699        -8.87182        -3.21870
   C        0.02912        -9.92104        -3.73502
   C       -0.56864       -11.14205        -4.11044
   N       -1.05735       -12.13498        -4.41162
   C        1.38311        -9.72332        -3.85731
   C        1.96074        -8.50188        -3.47123
   C        1.20571        -7.47463        -2.97356
   C       -0.98057        -5.37438        -1.90018
   S        0.55400        -4.52857        -2.03396
   C       -0.08407        -3.08057        -1.34005
   C       -1.38222        -3.23951        -1.02808
   C       -1.92166        -4.51969        -1.33023
   C       -3.29764        -4.65625        -0.97789
   C       -3.89707        -3.56882        -0.42898
   S       -2.66990        -2.23490        -0.30593
   O       -2.35721        -1.93894         1.06359
   O       -2.98186        -1.13551        -1.17779
   C       -5.24364        -3.48198        -0.01010
   C       -5.97260        -2.43610         0.54052
   C       -5.47312        -1.07203         0.88831
   C       -5.07207        -1.00392         2.36482
   C       -7.30148        -2.79776         0.79744
   C       -7.63124        -4.09259         0.45858
   S       -6.24937        -4.91053        -0.20186
   C       -8.90716        -4.70173         0.59510
   C       -9.18497        -5.98275         0.26509
   C      -10.45836        -6.61031         0.37291
   S      -10.52319        -8.35984         0.40498
   C      -12.23746        -8.37043         0.59633
   C      -12.72173        -7.11216         0.61845
   C      -11.73990        -6.09302         0.48098
   C      -12.26666        -4.75316         0.46415
   C      -13.58313        -4.65741         0.68622
   S      -14.32584        -6.32571         0.69984
   O      -15.00171        -6.48298        -0.55957
   O      -15.07816        -6.64091         1.87878
   C      -14.50601        -3.57610         0.79466
   S      -14.94934        -2.53356        -0.51090
   C      -16.23557        -1.84784         0.37671
   C      -16.34451        -2.38181         1.64371
   C      -15.33799        -3.37338         1.88530
   C      -15.22986        -3.97098         3.17366
   C      -14.10067        -4.76162         3.47993
   N      -13.12657        -5.29604         3.76862
   C      -16.16822        -3.66047         4.12763
   C      -17.20070        -2.73778         3.85735
   C      -17.28357        -2.08670         2.66161
   H       -2.82565        -9.70323        -3.22872
   H        2.00714       -10.51281        -4.24854
   H        3.02810        -8.37925        -3.57175
   H        1.68238        -6.55411        -2.68190
   H        0.54751        -2.22522        -1.21407
   H       -3.83820        -5.57611        -1.13439
   H       -6.27966        -0.35809         0.70264
   H       -4.62427        -0.79479         0.26912
   H       -5.88147        -1.35659         3.00154
   H       -4.83635         0.02216         2.63353
   H       -4.18899        -1.61242         2.53848
   H       -8.01690        -2.11558         1.22296
   H       -9.67245        -4.06932         1.01986
   H       -8.37622        -6.61546        -0.07872
   H      -12.76573        -9.29839         0.67930
   H      -11.63314        -3.89433         0.31217
   H      -16.85412        -1.09812        -0.07458
   H      -16.10309        -4.11237         5.10583
   H      -17.91841        -2.52890         4.63624
   H      -18.04846        -1.34857         2.47501
*
