# ORCA input file
# SCF done       -118.911272181569          0.000718463538
! CAM-B3LYP def2-SVP def2/J RIJCOSX Grid4 TightSCF
%maxcore 5000
%tddft
    Mode sTDDFT
    Ethresh 5.0
    maxcore 5000
end

%pal
  nprocs 6
  end
* xyz 0 1
   C       -0.19735         4.35457        -1.95853
   S       -1.40608         3.25837        -1.39567
   C       -0.28967         1.93076        -1.49180
   O       -0.63693         0.68571        -1.11322
   C        0.93948         2.32803        -1.95212
   C        0.97375         3.72992        -2.20492
   C        2.09593         1.45095        -2.11656
   C        3.33509         1.75887        -1.65377
   F        3.68495         2.87031        -1.00467
   S        4.54068         0.54448        -1.94086
   C        3.32349        -0.40836        -2.71685
   F        3.67417        -1.58746        -3.23621
   C        2.08162         0.16343        -2.76474
   C        0.90682        -0.35912        -3.39988
   C        0.72863        -1.59295        -3.91129
   C       -0.51202        -1.99267        -4.48112
   S       -1.93125        -0.98335        -4.35167
   C       -2.94780        -2.04946        -5.27205
   C       -2.21585        -3.17064        -5.65139
   C       -0.85267        -3.12151        -5.19811
   N       -0.21534        -4.23584        -5.64628
   C       -1.12385        -4.97453        -6.36709
   N       -0.71630        -6.18550        -6.95488
   O        0.44713        -6.51183        -6.77311
   O       -1.53024        -6.81664        -7.59699
   C       -2.35613        -4.36266        -6.40200
   C       -4.33347        -1.73196        -5.47252
   C       -5.32857        -2.65744        -5.63709
   F       -5.18288        -3.98126        -5.66326
   S       -6.92493        -2.00438        -5.74767
   C       -6.23879        -0.42450        -5.55707
   F       -7.05287         0.63097        -5.58977
   C       -4.88151        -0.39344        -5.43316
   C       -4.07666         0.80109        -5.33507
   C       -4.45273         1.96090        -4.77047
   C       -3.60781         3.10496        -4.67670
   S       -1.94224         3.06829        -5.22241
   C       -1.72383         4.73217        -4.77125
   O       -0.55779         5.37379        -4.95327
   C       -2.85635         5.26697        -4.22968
   C       -3.91382         4.34306        -4.17565
   H       -0.44409         5.38999        -2.07292
   H       -1.54331         0.66712        -0.78658
   H        1.85363         4.23456        -2.55988
   H        0.08341         0.33787        -3.46205
   H        1.51674        -2.33115        -3.90539
   H        0.74330        -4.51453        -5.51049
   H       -3.22462        -4.74224        -6.89811
   H       -3.08561         0.73209        -5.76263
   H       -5.43551         2.07492        -4.33454
   H        0.10166         4.79171        -5.34781
   H       -2.91685         6.28440        -3.89163
   H       -4.88578         4.58306        -3.78332
*
