# ORCA input file
# SCF done       -115.219432953718          0.000260793224
! CAM-B3LYP def2-SVP def2/J RIJCOSX Grid4 TightSCF
%maxcore 5000
%tddft
    Mode sTDDFT
    Ethresh 5.0
    maxcore 5000
end

%pal
  nprocs 6
  end
* xyz 0 1
   C        0.18926         1.58755        -3.32093
   S        1.06341         2.81619        -2.47896
   C        2.20006         1.64252        -1.88469
   O        3.24992         2.01627        -1.12584
   C        1.89757         0.36905        -2.30492
   C        0.74040         0.37020        -3.14432
   C        2.64699        -0.82929        -2.02378
   C        3.32585        -1.23020        -0.87431
   C        3.96028        -2.50454        -1.02793
   C        4.68324        -3.05523         0.04902
   C        4.74891        -2.37754         1.23174
   C        4.09310        -1.14009         1.39598
   C        3.39170        -0.57217         0.37399
   C        3.75442        -3.07732        -2.29105
   S        2.77170        -2.02644        -3.26487
   C        4.23265        -4.31827        -2.76038
   C        4.00353        -4.80815        -4.00457
   C        4.45372        -6.05234        -4.54238
   C        4.13291        -6.36263        -5.86476
   C        4.52364        -7.53115        -6.49210
   C        5.28464        -8.49553        -5.83668
   C        5.58462        -8.24950        -4.46163
   N        6.25484        -9.19225        -3.78501
   C        6.53789        -8.98762        -2.52480
   C        6.15522        -7.79942        -1.88882
   N        5.50371        -6.85692        -2.52166
   C        5.19190        -7.03925        -3.81649
   C        5.71674        -9.71246        -6.44447
   C        5.92139       -10.01676        -7.80071
   C        6.23345       -11.39599        -8.01378
   C        6.45593       -11.86761        -9.32096
   C        6.40778       -10.99759       -10.37327
   C        6.17077        -9.62807       -10.15920
   C        5.93635        -9.13930        -8.90458
   C        6.28835       -12.13225        -6.81800
   S        6.01267       -11.09887        -5.45374
   C        6.55585       -13.51178        -6.67480
   C        6.59527       -14.16065        -5.48373
   C        6.85341       -15.54587        -5.31545
   S        6.84311       -16.22269        -3.69800
   C        7.20438       -17.80608        -4.31444
   O        7.33893       -18.87674        -3.50901
   C        7.32402       -17.80450        -5.67417
   C        7.12561       -16.53179        -6.23365
   H       -0.67929         1.86137        -3.88450
   H        3.31537         2.97713        -1.08440
   H        0.34843        -0.53125        -3.57991
   H        5.17176        -4.01001        -0.07034
   H        5.29978        -2.79198         2.06328
   H        4.14876        -0.64305         2.35330
   H        2.88465         0.36835         0.50687
   H        4.81842        -4.90553        -2.07065
   H        3.41965        -4.20074        -4.68885
   H        3.53854        -5.65355        -6.42417
   H        4.18827        -7.71534        -7.50012
   H        7.07734        -9.77084        -2.01031
   H        6.38498        -7.61249        -0.84791
   H        6.67578       -12.91180        -9.48349
   H        6.57801       -11.35168       -11.37921
   H        6.18699        -8.95481       -11.00373
   H        5.80307        -8.07998        -8.75441
   H        6.72904       -14.06636        -7.58593
   H        6.41703       -13.59366        -4.57936
   H        7.21917       -18.62809        -2.58559
   H        7.54626       -18.69096        -6.23815
   H        7.18339       -16.34500        -7.29016
*
