# ORCA input file
# SCF done       -189.005437048044          0.000260737708
! CAM-B3LYP def2-SVP def2/J RIJCOSX Grid4 TightSCF
%maxcore 5000
%tddft
    Mode sTDDFT
    Ethresh 5.0
    maxcore 5000
end

%pal
  nprocs 6
  end
* xyz 0 1
   C        2.49567        -0.15096        -3.05638
   S        2.33862         0.44733        -1.46635
   C        2.71861         2.06585        -2.00826
   C        2.96899         2.08378        -3.37526
   C        2.82980         0.81165        -3.96605
   C        3.03089         0.57212        -5.42795
   C        2.84932         1.86671        -6.21220
   F        3.22057         1.64348        -7.52066
   C        3.72803         2.96443        -5.61239
   F        3.60570         4.11468        -6.36126
   C        3.31764         3.29492        -4.17637
   C        2.70846         3.15220        -1.09309
   S        3.01101         4.80028        -1.59754
   C        2.77726         5.45981         0.00754
   C        2.48120         4.42831         0.88509
   C        2.44892         3.14690         0.26915
   C        2.14653         2.11414         1.24786
   O        2.03416         0.92200         1.07087
   C        1.99222         2.82485         2.58176
   C        2.19079         4.30758         2.31087
   O        2.10655         5.18032         3.14562
   C        2.90898         6.86034         0.15973
   C        2.66122         7.53943         1.31120
   C        2.78352         8.94686         1.39347
   N        2.44860         9.67411         2.51132
   C        1.88514         9.15646         3.73498
   C        0.39585         8.85469         3.59137
   C        2.64978        11.05618         2.32447
   O        2.42481        11.89338         3.17228
   C        3.16430        11.15357         0.97592
   C        3.24038         9.85151         0.43290
   C        3.79258         9.97013        -0.89681
   O        4.03349         9.13864        -1.75212
   N        4.03788        11.34652        -1.06457
   C        4.52818        11.83052        -2.33409
   C        3.43673        12.52445        -3.14379
   C        3.65088        12.06855         0.04387
   C        3.69183        13.46359         0.28604
   C        4.30050        14.44054        -0.43242
   C        4.25173        15.81182        -0.08069
   S        3.19003        16.38866         1.16777
   C        4.97754        16.85860        -0.63211
   C        5.97912        16.65288        -1.69569
   O        6.20577        15.57491        -2.22636
   C        6.68192        17.87159        -2.04618
   C        7.70330        18.08253        -2.94708
   N        8.04437        19.39243        -2.91163
   C        9.03206        20.01785        -3.75442
   C        8.40419        20.52829        -5.04973
   C        7.25892        20.04181        -2.02030
   C        6.39650        19.13013        -1.45073
   C        5.36248        19.34528        -0.45611
   O        5.12116        20.46272        -0.01441
   C        4.66654        18.12565        -0.04941
   C        3.68747        18.04814         0.94944
   C        3.04007        19.05329         1.72777
   S        3.20021        20.75941         1.37006
   C        2.04390        21.15481         2.55683
   C        1.58224        20.07059         3.24679
   C        2.14186        18.86469         2.78134
   C        1.75330        17.55801         3.39567
   C        1.00275        17.71852         4.71817
   F        0.40939        16.51160         5.01484
   C       -0.06527        18.80549         4.62004
   F       -0.77238        18.87350         5.80204
   C        0.60262        20.15157         4.37464
   H        2.33442        -1.19308        -3.25074
   H        2.33404        -0.18408        -5.79275
   H        4.04449         0.20172        -5.61255
   H        1.80218         2.19224        -6.24015
   H        4.78183         2.66701        -5.68286
   H        2.45355         3.96720        -4.22493
   H        4.12767         3.85418        -3.70126
   H        2.72822         2.46133         3.30235
   H        1.00946         2.63377         3.01797
   H        3.21460         7.40399        -0.72545
   H        2.35102         7.00174         2.19452
   H        2.03127         9.93680         4.48711
   H        2.42926         8.25893         4.03951
   H       -0.14189         9.75558         3.30546
   H        0.00267         8.49940         4.53944
   H        0.22719         8.09014         2.83661
   H        4.86970        10.94052        -2.87175
   H        5.38504        12.49003        -2.18041
   H        2.62794        11.82780        -3.35192
   H        3.84957        12.87245        -4.08621
   H        3.03154        13.37774        -2.60544
   H        3.17934        13.74014         1.20168
   H        4.89216        14.22926        -1.30872
   H        8.19865        17.38117        -3.58864
   H        9.81073        19.28469        -3.97945
   H        9.48207        20.84860        -3.20478
   H        7.95610        19.70643        -5.60283
   H        9.16280        20.99507        -5.67131
   H        7.63082        21.26096        -4.83239
   H        7.35612        21.09235        -1.83154
   H        1.77617        22.18038         2.72007
   H        2.62967        16.93002         3.57404
   H        1.09531        17.00556         2.71526
   H        1.67882        17.93988         5.55337
   H       -0.79381        18.55122         3.84062
   H        1.11911        20.44477         5.29464
   H       -0.15287        20.91159         4.16831
*
