# ORCA input file
# SCF done       -249.264279115516          0.000461731658
! CAM-B3LYP def2-SVP def2/J RIJCOSX Grid4 TightSCF
%maxcore 5000
%tddft
    Mode sTDDFT
    Ethresh 5.0
    maxcore 5000
end

%pal
  nprocs 6
  end
* xyz 0 1
   C        0.26039         2.34343        -0.49531
   C        1.20394         2.36736         0.49499
   C        1.10213         1.64134         1.70411
   N        1.06779         1.09496         2.71128
   C        2.35316         3.18269         0.48441
   N        3.29476         3.83695         0.53854
   C       -1.03548         1.66909        -0.38754
   C       -1.92682         2.23562        -1.31870
   C       -3.23796         1.81726        -1.41573
   C       -3.66584         0.79829        -0.56786
   C       -2.78018         0.21992         0.34838
   C       -1.46141         0.64881         0.44819
   C       -3.29509        -0.82962         1.29850
   O       -3.92681        -0.56664         2.28501
   O       -2.89810        -2.04173         0.93282
   C       -3.38049        -3.11805         1.72955
   C       -5.04946         0.25338        -0.63916
   O       -5.35580        -0.84157        -0.23730
   O       -5.90061         1.10612        -1.20704
   C       -7.24916         0.66688        -1.30650
   C       -1.21859         3.25450        -2.11859
   O       -1.66603         3.98364        -2.97007
   C        0.21237         3.16052        -1.69340
   C        1.15509         3.73756        -2.48718
   C        2.55664         3.53378        -2.51422
   C        3.27904         2.47255        -2.01697
   C        4.66595         2.69479        -2.25849
   C        4.75617         3.96571        -2.99640
   C        3.49785         4.45583        -3.14032
   C        5.92863         4.61808        -3.40187
   N        6.86365         5.19520        -3.73339
   C        5.71264         1.93461        -1.78795
   C        7.09475         2.08116        -2.07251
   C        7.81503         1.18252        -1.30186
   C        6.86492         0.42657        -0.49619
   C        5.60876         0.84319        -0.80205
   C        4.42856         0.35415        -0.23058
   N        3.46428        -0.05791         0.23890
   C        9.22436         1.06349        -1.35277
   N       10.04008         0.45886        -0.43545
   C        9.67076        -0.14082         0.81907
   C       11.40238         0.55545        -0.79532
   O       12.30107         0.10543        -0.12118
   C       11.38884         1.26524        -2.05923
   C       10.05301         1.56618        -2.37169
   C       10.02709         2.21062        -3.67522
   O        9.12307         2.61120        -4.37066
   N       11.38378         2.27437        -4.04795
   C       11.79433         2.88514        -5.28349
   C       12.21116         1.72229        -3.10557
   C       13.60944         1.65518        -3.24275
   C       14.41743         1.16997        -2.25246
   C       15.82376         1.05643        -2.33418
   C       16.55156         0.65780        -1.17538
   C       17.98054         0.54668        -1.16818
   N       18.61647         0.15027        -0.05201
   C       17.91808        -0.09754         1.02605
   C       16.49130         0.05528         1.03000
   N       15.85637         0.40860        -0.05793
   C       15.75147        -0.19817         2.21367
   N       15.19440        -0.41058         3.19103
   C       18.58432        -0.53994         2.19858
   N       19.08405        -0.89682         3.16470
   C       18.76697         0.88211        -2.29987
   C       18.04773         1.21513        -3.46725
   C       16.60475         1.30406        -3.48741
   N       16.15473         1.62573        -4.70152
   S       17.39374         1.78541        -5.70643
   N       18.57268         1.46082        -4.66996
   C       20.18335         0.80276        -2.20642
   C       21.15155         1.39751        -2.95372
   C       21.14005         2.48007        -3.91077
   C       20.25802         3.52686        -3.94635
   C       20.29113         4.56412        -4.90126
   N       20.23030         5.40809        -5.67623
   C       19.22121         3.70603        -3.00904
   N       18.36499         3.89520        -2.26802
   C       22.37384         2.38491        -4.68939
   C       23.21788         1.42973        -4.09045
   C       22.53261         0.82644        -2.92610
   O       22.96376         0.01381        -2.14661
   C       24.47045         1.15090        -4.59564
   C       24.88816         1.83866        -5.73348
   C       24.05247         2.78540        -6.33586
   C       22.79312         3.06883        -5.81955
   C       24.56365         3.56838        -7.51670
   O       25.29749         4.51240        -7.40978
   O       24.03601         3.12298        -8.65088
   C       24.50286         3.75366        -9.83861
   C       26.20278         1.56365        -6.37542
   O       26.45413         1.84265        -7.52177
   O       27.05638         0.96415        -5.54817
   C       28.34052         0.67085        -6.08343
   H       -3.91022         2.26227        -2.13216
   H       -0.79700         0.18013         1.15619
   H       -4.46191        -3.20276         1.61038
   H       -3.14847        -2.94403         2.78192
   H       -2.88210        -4.01241         1.36540
   H       -7.61754         0.35582        -0.32714
   H       -7.32145        -0.17790        -1.99458
   H       -7.81729         1.51452        -1.68035
   H        0.75670         4.41083        -3.24182
   H        2.87624         1.58137        -1.57879
   H        3.22070         5.38416        -3.60443
   H        7.50438         2.77141        -2.78362
   H        7.10410        -0.35653         0.19630
   H        9.00305         0.51304         1.38022
   H       10.59367        -0.28724         1.38234
   H        9.20114        -1.11491         0.66804
   H       10.88911         3.23812        -5.77782
   H       12.29935         2.16301        -5.92730
   H       12.45617         3.73226        -5.09740
   H       14.05261         2.01021        -4.16161
   H       13.98587         0.84945        -1.31245
   H       20.54650         0.12614        -1.43756
   H       25.10709         0.41781        -4.12601
   H       22.16842         3.80155        -6.30485
   H       25.56210         3.53085        -9.97654
   H       24.37028         4.83510        -9.77077
   H       23.91370         3.34115       -10.65323
   H       28.82110         1.58640        -6.43337
   H       28.25143        -0.02242        -6.92225
   H       28.91070         0.22294        -5.27401
*
