# ORCA input file
# SCF done       -214.047204545320          0.000645137233
! CAM-B3LYP def2-SVP def2/J RIJCOSX Grid4 TightSCF
%maxcore 5000
%tddft
    Mode sTDDFT
    Ethresh 5.0
    maxcore 5000
end

%pal
  nprocs 6
  end
* xyz 0 1
   C       -9.68126         0.32122         7.23824
   C      -10.73427        -0.07454         8.01411
   F      -11.19439         0.72640         8.98406
   C      -11.34890        -1.32569         7.80539
   F      -12.37985        -1.68713         8.58085
   C      -10.90188        -2.16370         6.82245
   C       -9.82037        -1.78340         6.00464
   C       -9.19676        -0.51930         6.21545
   C       -8.10827        -0.11685         5.40896
   C       -7.65879        -0.95031         4.41758
   C       -8.29832        -2.20295         4.20568
   C       -9.34497        -2.62355         4.97365
   C       -7.66005        -2.89993         3.07341
   O       -7.97761        -3.98106         2.62885
   C       -6.57402        -1.99880         2.61109
   C       -6.56764        -0.81517         3.45989
   C       -5.65023         0.20320         3.44534
   C       -5.64381         1.26545         4.37506
   N       -5.56800         2.14505         5.10870
   C       -4.55905         0.34609         2.56285
   N       -3.64194         0.55812         1.90221
   C       -5.61678        -2.27577         1.69327
   C       -5.37977        -3.46913         0.91228
   C       -4.00048        -3.82307         0.73664
   C       -3.64987        -4.85522        -0.09643
   C       -4.64557        -5.60194        -0.75332
   C       -6.01800        -5.27069        -0.55673
   C       -6.36315        -4.19210         0.27644
   N       -6.99147        -5.96940        -1.17999
   C       -6.61992        -6.95305        -1.95183
   C       -5.26025        -7.28680        -2.14006
   N       -4.29620        -6.62849        -1.55810
   C       -2.98458        -3.05021         1.44456
   C       -2.03269        -2.28818         0.84460
   C       -1.33170        -1.52870         1.84791
   O       -0.30056        -0.69490         1.62987
   C       -0.08899        -0.25556         0.30385
   C       -1.87091        -1.81009         3.09546
   C       -2.95201        -2.74795         2.88558
   C       -3.87704        -3.18902         3.79989
   C       -4.72891        -4.33970         3.70515
   C       -5.56190        -4.33946         4.78386
   O       -6.50537        -5.19781         5.17343
   C       -6.75973        -6.30011         4.32547
   C       -5.29406        -3.14333         5.58822
   C       -4.26782        -2.48442         5.02740
   C       -1.39826        -1.39129         4.38270
   C       -0.48120        -0.43758         4.61202
   C       -0.08043        -0.04112         5.94790
   C       -0.95334         0.06138         6.99388
   S       -0.21573         0.60941         8.44737
   C        1.29804         0.70691         7.68190
   C        1.24575         0.33573         6.36080
   C        2.47173         0.24457         5.58024
   O        3.57374         0.57097         5.94051
   O        2.23773        -0.31115         4.34860
   C        3.26143        -0.63673         3.55158
   C        3.00000        -1.19983         2.35505
   C        4.01468        -1.59292         1.45239
   C        3.84841        -2.23527         0.26343
   C        4.95008        -2.22530        -0.73631
   O        6.10735        -1.93909        -0.53840
   C        4.30930        -2.57373        -2.02186
   C        4.85034        -2.57678        -3.27470
   C        4.02764        -2.89728        -4.37780
   C        2.65395        -3.20563        -4.15774
   C        1.83476        -3.51195        -5.26304
   C        2.35554        -3.51395        -6.52643
   C        3.71497        -3.21086        -6.74276
   C        4.53495        -2.90957        -5.69164
   F        4.19733        -3.21897        -7.99227
   F        1.57493        -3.80378        -7.57539
   C        2.12462        -3.20430        -2.84690
   C        2.94216        -2.89876        -1.79144
   C        2.68572        -2.83920        -0.35224
   C        1.62432        -3.43455         0.27727
   C        1.48432        -3.61348         1.67129
   N        1.31630        -3.85251         2.78073
   C        0.55281        -4.04272        -0.40807
   N       -0.36353        -4.52165        -0.90739
   H       -9.22155         1.28162         7.41211
   H      -11.38346        -3.11756         6.67465
   H       -7.66016         0.84565         5.59450
   H       -9.80473        -3.58332         4.79401
   H       -4.85481        -1.52119         1.54482
   H       -2.61482        -5.11626        -0.25490
   H       -7.40522        -3.93588         0.36962
   H       -7.40659        -7.50769        -2.44569
   H       -4.96961        -8.10893        -2.78064
   H       -1.86394        -2.23773        -0.21462
   H        0.72314         0.46866         0.35369
   H       -0.98628         0.22837        -0.08961
   H        0.20025        -1.07715        -0.35931
   H       -4.65209        -5.08965         2.94400
   H       -7.53087        -6.88812         4.81886
   H       -5.85980        -6.90616         4.19164
   H       -7.11922        -5.95637         3.35174
   H       -5.85591        -2.88286         6.46521
   H       -3.87302        -1.53448         5.33129
   H       -1.79948        -1.93697         5.22520
   H       -0.01731         0.07786         3.78759
   H       -2.00844        -0.12500         6.98353
   H        2.17279         1.01141         8.22180
   H        4.26029        -0.45132         3.93518
   H        1.96134        -1.33064         2.09355
   H        5.03066        -1.28914         1.68030
   H        5.89145        -2.33396        -3.42288
   H        0.79304        -3.75054        -5.11543
   H        5.57300        -2.67943        -5.87359
   H        1.08010        -3.43734        -2.71438
*
