# ORCA input file
# SCF done       -187.618345939571          0.000774855606
! CAM-B3LYP def2-SVP def2/J RIJCOSX Grid4 TightSCF
%maxcore 5000
%tddft
    Mode sTDDFT
    Ethresh 5.0
    maxcore 5000
end

%pal
  nprocs 6
  end
* xyz 0 1
   C       -0.63550         0.02936        -6.93405
   S       -1.34898        -1.51890        -6.66469
   C       -2.24725        -0.92766        -5.32322
   C       -1.98629         0.41222        -5.12214
   C       -1.06410         0.95803        -6.05099
   N       -2.57980         1.15592        -4.07277
   O       -3.30270         0.55616        -3.29594
   O       -2.31661         2.33701        -4.00215
   C       -3.18006        -1.75146        -4.58023
   C       -4.52283        -1.85868        -4.84135
   N       -5.22003        -1.16160        -5.84799
   O       -6.42019        -1.32921        -5.92483
   O       -4.57043        -0.43926        -6.58718
   C       -5.13422        -2.77086        -3.89870
   C       -4.16107        -3.26413        -3.10783
   C       -2.88885        -2.68081        -3.49280
   C       -1.65604        -2.89484        -2.92000
   C       -0.53437        -2.00500        -2.96099
   C        0.35412        -2.36769        -1.99650
   C       -0.11555        -3.55859        -1.35367
   N        0.62137        -4.22467        -0.36232
   O        0.16592        -5.25451         0.11787
   O        1.68389        -3.73177        -0.02710
   C       -1.31792        -3.95426        -1.94365
   C       -1.96120        -5.18837        -1.74759
   C       -2.73709        -5.81202        -2.68897
   C       -3.38453        -7.05727        -2.60358
   N       -3.58025        -7.90143        -1.53590
   C       -3.24692        -7.69624        -0.14347
   C       -4.10283        -6.60890         0.49836
   C       -4.27350        -9.07284        -1.91555
   O       -4.56511        -9.96339        -1.14943
   C       -4.49925        -8.91138        -3.33805
   C       -3.96281        -7.67828        -3.72369
   C       -4.15619        -7.53497        -5.15196
   O       -3.87445        -6.64361        -5.92066
   N       -4.78953        -8.74133        -5.54378
   C       -5.19863        -8.91526        -6.91905
   C       -6.71057        -8.80036        -7.08710
   C       -5.00282        -9.56888        -4.47182
   C       -5.56396       -10.86418        -4.40355
   C       -5.89128       -11.71064        -5.41532
   C       -6.40287       -13.01237        -5.20323
   S       -6.86679       -13.57249        -3.62005
   C       -6.59705       -14.00361        -6.16125
   C       -6.26454       -13.82821        -7.59273
   O       -5.87432       -12.77701        -8.07617
   C       -6.44423       -15.04610        -8.35646
   C       -6.20066       -15.28847        -9.69276
   N       -6.48133       -16.58501        -9.95448
   C       -6.40807       -17.20817       -11.25272
   C       -7.74400       -17.10712       -11.98545
   C       -6.91263       -17.19317        -8.82478
   C       -6.90320       -16.27349        -7.79835
   C       -7.27131       -16.45282        -6.40543
   O       -7.62839       -17.51682        -5.93562
   C       -7.12030       -15.20817        -5.61544
   C       -7.34546       -15.11488        -4.24913
   C       -7.91462       -16.06323        -3.33710
   S       -7.37959       -16.07077        -1.66671
   C       -8.47239       -17.30452        -1.26660
   C       -9.22283       -17.68348        -2.35147
   C       -8.91076       -16.97870        -3.53359
   N      -10.23666       -18.68503        -2.27940
   O      -10.35862       -19.27599        -1.22630
   O      -10.91279       -18.86968        -3.26678
   H        0.05616         0.15180        -7.74255
   H       -0.76215         1.98868        -6.03022
   H       -6.18784        -2.96803        -3.86654
   H       -4.29457        -3.91659        -2.26887
   H       -0.46284        -1.13310        -3.57842
   H        1.27031        -1.87380        -1.73218
   H       -1.69679        -5.69911        -0.83379
   H       -2.83636        -5.35501        -3.66604
   H       -2.18162        -7.47864        -0.03756
   H       -3.44946        -8.65412         0.34512
   H       -3.95596        -5.64731         0.01293
   H       -3.83361        -6.50992         1.54564
   H       -5.15532        -6.87422         0.43333
   H       -4.83024        -9.86970        -7.30237
   H       -4.70803        -8.10906        -7.47264
   H       -6.96889        -8.94360        -8.13212
   H       -7.23144        -9.54937        -6.49566
   H       -7.04819        -7.81440        -6.77658
   H       -5.68734       -11.21131        -3.38273
   H       -5.74438       -11.45684        -6.45414
   H       -5.84024       -14.61790       -10.44746
   H       -6.13367       -18.25759       -11.11883
   H       -5.62463       -16.71252       -11.83117
   H       -8.52924       -17.59263       -11.41117
   H       -7.67138       -17.59126       -12.95490
   H       -8.01775       -16.06545       -12.13501
   H       -7.19334       -18.22738        -8.80301
   H       -8.53238       -17.70390        -0.27297
   H       -9.40711       -17.16006        -4.46770
*
