# ORCA input file
# SCF done       -124.635006075064          0.000549637575
! CAM-B3LYP def2-SVP def2/J RIJCOSX Grid4 TightSCF
%maxcore 5000
%tddft
    Mode sTDDFT
    Ethresh 5.0
    maxcore 5000
end

%pal
  nprocs 6
  end
* xyz 0 1
   C       -6.04882         3.51897        -4.46073
   O       -7.35704         3.56605        -4.74813
   C       -7.90942         4.46641        -3.91444
   C       -6.97488         5.00268        -3.09097
   C       -5.73318         4.38467        -3.44024
   C       -4.42657         4.58947        -2.88110
   C       -4.14311         5.46318        -1.89408
   C       -2.85757         5.69654        -1.31274
   C       -1.70791         5.05202        -1.62216
   C       -0.45554         5.33169        -1.01217
   O       -0.35716         6.30293        -0.07080
   C        0.92644         6.35174         0.32550
   C        1.68098         5.43614        -0.33028
   C        0.80011         4.74821        -1.21743
   C        1.10833         3.68968        -2.12010
   C        2.33664         3.14673        -2.29629
   C        2.59174         2.08757        -3.20310
   C        3.81860         1.53625        -3.38951
   C        4.06998         0.47807        -4.29194
   S        5.67813        -0.19551        -4.51092
   C        5.18798        -1.37284        -5.71085
   C        3.82144        -1.23032        -5.91554
   C        3.22108        -0.21498        -5.13393
   O        1.89603        -0.19424        -5.43810
   C        1.76596        -1.17430        -6.36516
   N        2.83667        -1.80911        -6.68468
   C        6.10205        -2.26219        -6.31084
   C        5.71668        -3.16180        -7.25492
   C        6.59047        -4.06930        -7.89618
   O        7.91013        -4.10013        -7.57770
   C        8.48624        -5.03971        -8.34591
   C        7.58317        -5.63131        -9.16757
   C        6.32609        -5.01618        -8.89553
   C        5.06010        -5.27937        -9.49391
   C        4.84245        -6.15775       -10.50057
   C        3.56186        -6.38034       -11.07189
   C        3.33697        -7.22852       -12.10425
   C        2.06109        -7.45285       -12.68829
   O        0.96884        -6.82076       -12.18989
   C       -0.08842        -7.20531       -12.92360
   C        0.27795        -8.07551       -13.89796
   C        1.68532        -8.25719       -13.76748
   C        2.54738        -9.07591       -14.56473
   C        2.15720        -9.80791       -15.62428
   C        3.05798       -10.61270       -16.40203
   C        2.68429       -11.33182       -17.45966
   H       -5.43983         2.84726        -5.03325
   H       -8.96457         4.63447        -4.00509
   H       -7.14039         5.73983        -2.33265
   H       -3.64516         3.98212        -3.31590
   H       -4.94941         6.05973        -1.48943
   H       -2.81175         6.46323        -0.55079
   H       -1.69699         4.27274        -2.36836
   H        1.17529         7.07660         1.07577
   H        2.72985         5.26697        -0.20279
   H        0.28392         3.29832        -2.70148
   H        3.17805         3.52058        -1.72951
   H        1.75460         1.70477        -3.77173
   H        4.66967         1.90492        -2.83362
   H        0.78953        -1.35688        -6.76908
   H        7.13462        -2.20487        -5.99847
   H        4.67829        -3.19223        -7.54787
   H        9.53972        -5.19404        -8.21567
   H        7.78179        -6.40939        -9.87490
   H        4.22150        -4.71804        -9.10440
   H        5.66783        -6.72261       -10.91231
   H        2.72798        -5.83152       -10.65570
   H        4.15997        -7.77930       -12.53660
   H       -1.04183        -6.79343       -12.65581
   H       -0.36816        -8.53334       -14.61771
   H        3.59100        -9.08849       -14.27795
   H        1.12145        -9.80872       -15.93379
   H        4.09417       -10.61393       -16.08724
   H        1.66039       -11.34885       -17.79530
   H        3.38332       -11.92467       -18.02343
*
