# ORCA input file
# SCF done       -126.301006420707          0.000636371607
! CAM-B3LYP def2-SVP def2/J RIJCOSX Grid4 TightSCF
%maxcore 5000
%tddft
    Mode sTDDFT
    Ethresh 5.0
    maxcore 5000
end

%pal
  nprocs 6
  end
* xyz 0 1
   C       -0.00115         2.28165        -4.83321
   O       -1.11870         1.66628        -5.23557
   C       -2.13594         2.17388        -4.51579
   C       -1.68769         3.11603        -3.64996
   C       -0.27364         3.20147        -3.84563
   C        0.62001         4.07377        -3.14068
   C        1.95579         4.14037        -3.32985
   C        2.80062         5.02450        -2.60815
   C        4.14288         5.09300        -2.79946
   C        4.99201         5.97247        -2.09114
   N        6.33707         6.03217        -2.29862
   C        6.95558         6.95733        -1.50458
   C        5.94872         7.54823        -0.71839
   C        4.70737         6.92939        -1.08604
   N        3.55422         7.28471        -0.50783
   C        3.65528         8.22583         0.40217
   C        4.87919         8.83136         0.76009
   N        6.02720         8.50625         0.21344
   C        8.33972         7.20242        -1.54662
   S        9.13171         8.38376        -0.53234
   C       10.73043         8.06136        -1.19925
   C       10.62691         7.06587        -2.17381
   C        9.29490         6.60692        -2.34614
   O        9.23005         5.64454        -3.29483
   C       10.51947         5.49069        -3.72606
   N       10.74384         4.53208        -4.73312
   O       11.89086         4.39183        -5.11552
   O        9.78062         3.91535        -5.14758
   C       11.40665         6.31924        -3.08858
   C       11.86969         8.74762        -0.75900
   N       11.84802         9.70068         0.21747
   C       13.07978        10.22841         0.47203
   C       13.97878         9.57860        -0.39932
   C       13.22023         8.64251        -1.17744
   N       13.79762         7.86819        -2.10079
   C       15.09372         8.03109        -2.23726
   C       15.83875         8.95302        -1.47160
   N       15.30085         9.72529        -0.55805
   C       13.35062        11.22632         1.43276
   S       12.09766        11.91031         2.42995
   C       13.24788        12.94860         3.22741
   C       12.88675        13.89525         4.28427
   O       13.70007        14.61401         4.80297
   O       11.59227        13.93040         4.65815
   C       14.51518        12.75236         2.72716
   C       14.57936        11.78899         1.72280
   H        0.91422         1.99222        -5.30982
   H       -3.11631         1.78728        -4.71250
   H       -2.26938         3.68697        -2.95553
   H        0.16048         4.71978        -2.40413
   H        2.42388         3.49787        -4.06366
   H        2.35067         5.67606        -1.87248
   H        4.61701         4.45042        -3.53170
   H        6.83263         5.45919        -2.96692
   H        2.73380         8.52754         0.88061
   H        4.91112         9.60345         1.51620
   H       12.46317         6.38989        -3.24696
   H       11.00502         9.98140         0.69674
   H       15.57674         7.41238        -2.98036
   H       16.90496         9.05541        -1.61696
   H       11.04030        13.30362         4.17178
   H       15.35643        13.30757         3.10025
   H       15.47044        11.48723         1.20406
*
