# ORCA input file
# SCF done       -140.831209977995          0.000468714953
! CAM-B3LYP def2-SVP def2/J RIJCOSX Grid4 TightSCF
%maxcore 5000
%tddft
    Mode sTDDFT
    Ethresh 5.0
    maxcore 5000
end

%pal
  nprocs 6
  end
* xyz 0 1
   C        4.98198        -0.66979         5.07675
   S        6.15590        -1.42640         6.09801
   C        6.48827        -2.60990         4.87467
   O        7.39829        -3.58632         5.05321
   C        5.72769        -2.42447         3.73846
   C        4.86638        -1.29378         3.88749
   C        5.84259        -3.27900         2.59492
   C        5.14677        -3.14389         1.44359
   C        5.29304        -3.98124         0.31236
   S        6.40556        -5.30979         0.28793
   C        6.01907        -5.73174        -1.35481
   C        5.03559        -4.86441        -1.86067
   C        4.62497        -3.87781        -0.91834
   C        3.64307        -2.94156        -1.29222
   C        3.08173        -2.97386        -2.54046
   C        2.03681        -1.97138        -2.92281
   C        3.48973        -3.96247        -3.47969
   C        2.86752        -3.99556        -4.84107
   C        4.44667        -4.88087        -3.13727
   C        6.66769        -6.78272        -2.02761
   C        7.58525        -7.61221        -1.46059
   C        8.29401        -8.62217        -2.15137
   O        9.16754        -9.40192        -1.46476
   C        9.78353       -10.25897        -2.31977
   C        9.28183       -10.02923        -3.59590
   C        8.33897        -9.00208        -3.48928
   F        7.61747        -8.47466        -4.48588
   F        9.63157       -10.67791        -4.71206
   C       10.74788       -11.16019        -1.80492
   C       11.57274       -11.92245        -2.56971
   C       12.55027       -12.81909        -2.07941
   S       13.93511       -13.15012        -3.07042
   C       14.72963       -14.07942        -1.83773
   C       13.88393       -14.22687        -0.72490
   C       12.65685       -13.50657        -0.85900
   C       11.68200       -13.62177         0.14919
   C       11.90404       -14.38853         1.26203
   C       10.85139       -14.50065         2.32098
   C       13.12279       -15.10758         1.39592
   C       13.34564       -15.97916         2.59321
   C       14.07455       -15.03217         0.41390
   C       16.06364       -14.48376        -2.08755
   C       16.98569       -14.85154        -1.16379
   C       18.32977       -15.20535        -1.46465
   S       19.40794       -15.60751        -0.13841
   C       20.72184       -15.86858        -1.23620
   O       21.94673       -16.23199        -0.80846
   C       20.36091       -15.66033        -2.55040
   C       18.99921       -15.28756        -2.65654
   C       21.30774       -15.81392        -3.63684
   C       21.05254       -15.59223        -4.92067
   H        4.45998         0.19152         5.44157
   H        7.80629        -3.52095         5.92371
   H        4.18584        -0.96777         3.12295
   H        6.56094        -4.08215         2.68922
   H        4.42898        -2.34266         1.34107
   H        3.32818        -2.19079        -0.58256
   H        1.10660        -2.46931        -3.19437
   H        2.36230        -1.38579        -3.78202
   H        1.83649        -1.29180        -2.09823
   H        1.79067        -4.14499        -4.76760
   H        3.28832        -4.80243        -5.43526
   H        3.03643        -3.05524        -5.36478
   H        4.75413        -5.62884        -3.85254
   H        6.41135        -6.91160        -3.06887
   H        7.83054        -7.51229        -0.41248
   H       10.83482       -11.15733        -0.72942
   H       11.54819       -11.79819        -3.64410
   H       10.73001       -13.13177         0.02062
   H       11.23251       -14.14887         3.27921
   H       10.54152       -15.53732         2.44824
   H        9.97836       -13.90884         2.05820
   H       13.28204       -15.39537         3.51073
   H       14.32461       -16.44972         2.54947
   H       12.58875       -16.76142         2.64525
   H       14.96373       -15.63649         0.49406
   H       16.37156       -14.41640        -3.12280
   H       16.73246       -14.84481        -0.11479
   H       21.96388       -16.31404         0.15153
   H       18.52601       -15.08377        -3.59836
   H       22.29290       -16.13211        -3.32367
   H       20.08701       -15.27128        -5.27131
   H       21.81133       -15.72476        -5.67192
*
