# ORCA input file
# SCF done       -175.840662589077          0.000863542181
! CAM-B3LYP def2-SVP def2/J RIJCOSX Grid4 TightSCF
%maxcore 5000
%tddft
    Mode sTDDFT
    Ethresh 5.0
    maxcore 5000
end

%pal
  nprocs 6
  end
* xyz 0 1
   C        5.36006       -10.26582       -10.62185
   S        3.81014       -10.96509       -10.19139
   C        3.79146        -9.89310        -8.84928
   C        4.94226        -9.10819        -8.84202
   N        5.80112        -9.34055        -9.84461
   C        4.93860        -8.16396        -7.68195
   C        3.63082        -8.51125        -7.03178
   C        2.99136        -9.52917        -7.73912
   S        1.49083        -9.96885        -7.03461
   C        1.71037        -8.76271        -5.77429
   C        2.90341        -8.07733        -5.92741
   C        0.66340        -8.60901        -4.82861
   C        0.60556        -7.66043        -3.86123
   C       -0.49569        -7.42685        -2.98148
   C       -1.81607        -7.69820        -3.25509
   O       -2.81863        -7.55098        -2.31447
   C       -2.42864        -7.00285        -1.13019
   C       -1.07545        -6.63082        -0.87832
   C       -0.90140        -6.08188         0.34901
   S       -2.38839        -6.01186         1.22026
   C       -3.25190        -6.73026        -0.08834
   O       -0.08782        -6.84048        -1.79194
   C       -2.27474        -8.08821        -4.54457
   C       -3.50422        -8.59761        -4.81356
   C       -3.90321        -9.01268        -6.10679
   S       -5.53993        -9.58772        -6.37529
   C       -3.13730        -9.08160        -7.26464
   C       -3.83495        -9.59869        -8.34948
   C       -3.61220        -9.90327        -9.76481
   C       -2.43666        -9.92944       -10.42834
   C       -2.35005       -10.21965       -11.90136
   N       -3.19248        -9.30085       -12.66746
   C       -1.13860        -9.65009        -9.71266
   N        0.02366       -10.12493       -10.45037
   C       -5.17396        -9.89793        -8.02044
   C       -5.83610       -10.33357        -9.17585
   S       -7.40068       -10.85705        -9.63181
   C       -4.93131       -10.30310       -10.26048
   C       -5.52506       -10.68164       -11.45256
   C       -6.87053       -11.01395       -11.30589
   C       -7.79266       -11.42289       -12.28254
   C       -7.52943       -11.47965       -13.62687
   C       -8.45875       -11.89124       -14.58310
   C       -8.21906       -11.89918       -15.93992
   C       -9.10144       -12.30707       -16.96326
   C       -8.59444       -12.18702       -18.22450
   C       -7.28236       -11.67017       -18.26567
   S       -6.70431       -11.35480       -16.64667
   C       -6.50862       -11.40498       -19.38132
   C       -6.84204       -11.60682       -20.73718
   C       -5.86942       -11.22129       -21.60884
   C       -4.71116       -10.68592       -20.99068
   S       -4.90299       -10.71097       -19.24766
   C       -3.60678       -10.20040       -21.64056
   C       -2.45616        -9.63746       -21.06415
   S       -2.16174        -9.45988       -19.34154
   C       -0.62730        -8.70799       -19.55208
   C       -0.32890        -8.58536       -20.88860
   C       -1.35889        -9.11109       -21.72588
   O       -1.03993        -8.97419       -23.03079
   C        0.17808        -8.36791       -23.03637
   N        0.76879        -8.09117       -24.28883
   O        1.85788        -7.54514       -24.26629
   O        0.16202        -8.40763       -25.29073
   C        0.66599        -8.10513       -21.78310
   H        5.88162       -10.61575       -11.48894
   H        4.97722        -7.12242        -8.00592
   H        5.78743        -8.33577        -7.01762
   H        3.22092        -7.30259        -5.25444
   H       -0.14046        -9.32582        -4.91760
   H        1.46878        -7.04070        -3.66266
   H        0.00450        -5.71901         0.78696
   H       -4.30428        -6.90772        -0.01572
   H       -1.58083        -7.92359        -5.35145
   H       -4.21199        -8.73307        -4.00867
   H       -2.11697        -8.74961        -7.28447
   H       -2.71607       -11.23519       -12.09445
   H       -1.29196       -10.17253       -12.19301
   H       -2.92413        -8.34262       -12.47041
   H       -3.05239        -9.46005       -13.66015
   H       -1.19679       -10.08259        -8.70230
   H       -1.03233        -8.56348        -9.60300
   H        0.03862       -11.13994       -10.46382
   H        0.87157        -9.81795        -9.98700
   H       -5.02800       -10.68160       -12.40181
   H       -8.78134       -11.69504       -11.93601
   H       -6.55513       -11.17834       -13.98637
   H       -9.43465       -12.22152       -14.25127
   H      -10.08657       -12.67677       -16.73822
   H       -9.13016       -12.44973       -19.11879
   H       -7.78603       -12.02752       -21.03379
   H       -5.94429       -11.29617       -22.67916
   H       -3.60737       -10.23429       -22.72211
   H       -0.05640        -8.40903       -18.69843
   H        1.60063        -7.63492       -21.55849
*
