# ORCA input file
# SCF done       -183.940043512415          0.000509065436
! CAM-B3LYP def2-SVP def2/J RIJCOSX Grid4 TightSCF
%maxcore 5000
%tddft
    Mode sTDDFT
    Ethresh 5.0
    maxcore 5000
end

%pal
  nprocs 6
  end
* xyz 0 1
   C      -11.74937        -9.11715         5.36133
   S      -12.72212        -8.51770         4.03387
   C      -11.29279        -8.53904         3.08243
   C      -10.21464        -8.99218         3.84269
   N      -10.50041        -9.30754         5.11282
   C       -8.95936        -9.01954         3.03186
   C       -9.46245        -8.52375         1.70801
   C      -10.83518        -8.25143         1.77479
   S      -11.46533        -7.68433         0.28981
   C       -9.87418        -7.80929        -0.44766
   C       -8.92391        -8.27397         0.45630
   C       -9.71904        -7.45607        -1.80414
   C       -8.54356        -7.51579        -2.49040
   C       -8.39781        -7.17343        -3.84481
   S       -9.71293        -6.61135        -4.86332
   C       -8.63675        -6.45236        -6.34016
   O       -9.06409        -6.08063        -7.40062
   C       -7.32099        -6.84640        -5.92726
   C       -7.21567        -7.23361        -4.57168
   C       -5.89883        -7.63845        -4.16221
   O       -5.48105        -8.01481        -3.10029
   S       -4.82381        -7.49123        -5.63651
   C       -6.13606        -6.92144        -6.65427
   C       -5.99170        -6.59897        -8.00758
   C       -4.83773        -6.71733        -8.73202
   C       -4.76413        -6.39657       -10.09229
   S       -6.14284        -5.76652       -10.97861
   C       -5.21818        -5.65435       -12.52956
   O       -5.74221        -5.19965       -13.52196
   C       -3.89159        -6.14025       -12.28886
   C       -3.66913        -6.51290       -10.94077
   C       -2.33282        -6.94909       -10.63016
   O       -1.84307        -7.32616        -9.60214
   S       -1.38439        -6.82533       -12.18153
   C       -2.76773        -6.26745       -13.11970
   C       -2.55921        -6.04621       -14.48360
   C       -3.52527        -5.76349       -15.42216
   C       -3.22875        -5.59430       -16.78639
   C       -4.16949        -5.28759       -17.77005
   O       -3.86658        -5.37651       -19.10860
   C       -2.58169        -5.68883       -19.43062
   C       -1.59436        -5.89451       -18.42596
   C       -0.36983        -6.16724       -18.94098
   S       -0.40854        -6.17840       -20.66523
   C       -2.09064        -5.81144       -20.68981
   O       -1.89950        -5.83139       -17.10461
   C       -5.52612        -4.89706       -17.60213
   C       -6.10833        -4.33198       -16.51254
   C       -7.49384        -4.01139       -16.35685
   C       -7.91220        -3.64924       -15.08577
   C       -9.26549        -3.40745       -14.81273
   C       -9.93609        -3.09075       -13.63238
   C       -9.44352        -2.95010       -12.23585
   C       -9.54733        -4.31029       -11.49643
   N       -9.66260        -4.06459       -10.07981
   C       -8.02646        -2.37254       -12.11146
   N       -7.80370        -1.88714       -10.75720
   C      -11.33756        -2.98432       -13.97551
   C      -12.41426        -2.72555       -13.20876
   C      -13.78822        -2.70908       -13.77792
   C      -13.85012        -2.90318       -15.25995
   C      -12.76549        -3.16257       -16.01206
   C      -11.48183        -3.22699       -15.41516
   C      -10.22249        -3.48984       -15.91220
   C       -9.76607        -3.81941       -17.21091
   C       -8.45230        -4.08289       -17.42147
   C      -14.58767        -3.81111       -13.10762
   C      -15.67229        -3.60895       -12.38648
   H      -12.20014        -9.30441         6.31460
   H       -8.54053       -10.02517         2.96490
   H       -8.19010        -8.36921         3.45199
   H       -7.89209        -8.41800         0.19410
   H      -10.60533        -7.11802        -2.32645
   H       -7.63638        -7.84567        -2.00358
   H       -6.88838        -6.23939        -8.49916
   H       -3.93242        -7.08433        -8.26520
   H       -1.53276        -6.13008       -14.81431
   H       -4.55659        -5.72267       -15.12324
   H        0.54065        -6.35999       -18.41381
   H       -2.61496        -5.70694       -21.61636
   H       -6.10205        -5.02232       -18.51002
   H       -5.50133        -4.10026       -15.65201
   H       -7.18433        -3.61727       -14.29506
   H      -10.12077        -2.27247       -11.70394
   H       -8.67657        -4.92085       -11.78683
   H      -10.44941        -4.83755       -11.82745
   H       -8.85614        -3.53314        -9.76463
   H       -9.71665        -4.92501        -9.54713
   H       -7.89204        -1.58899       -12.87768
   H       -7.28802        -3.15730       -12.28763
   H       -8.41804        -1.10536       -10.55299
   H       -6.84658        -1.57088       -10.64740
   H      -12.33245        -2.56487       -12.14250
   H      -14.26609        -1.75472       -13.51666
   H      -14.83623        -2.85531       -15.69685
   H      -12.85640        -3.31546       -17.07779
   H      -10.47685        -3.86728       -18.02319
   H       -8.11006        -4.33935       -18.41182
   H      -14.20137        -4.80628       -13.27666
   H      -16.06943        -2.62241       -12.21007
   H      -16.21215        -4.42641       -11.93991
*
