# ORCA input file
# SCF done       -172.521498811516          0.000684689797
! CAM-B3LYP def2-SVP def2/J RIJCOSX Grid4 TightSCF
%maxcore 5000
%tddft
    Mode sTDDFT
    Ethresh 5.0
    maxcore 5000
end

%pal
  nprocs 6
  end
* xyz 0 1
   C       -9.45892        -0.88650        -3.27881
   C      -10.79384        -0.81897        -2.95747
   C      -11.82965        -1.23161        -3.81698
   N      -12.70847        -1.55363        -4.48351
   C      -11.28680        -0.39602        -1.70578
   N      -11.73565        -0.14102        -0.67858
   C       -8.90155        -1.52260        -4.46634
   C       -7.49045        -1.52069        -4.35673
   C       -6.67396        -2.07538        -5.31066
   C       -7.27944        -2.66326        -6.42699
   C       -8.68967        -2.65411        -6.53044
   C       -9.51631        -2.09191        -5.56542
   S       -9.22834        -3.42599        -7.99223
   C       -7.57289        -3.74778        -8.43548
   C       -6.66286        -3.30094        -7.53865
  Br       -7.20310        -4.64349       -10.04168
   C       -7.08773        -0.82127        -3.11416
   O       -5.95075        -0.55322        -2.79277
   C       -8.35766        -0.42971        -2.45900
   C       -8.51564         0.40755        -1.38228
   C       -7.55246         0.79866        -0.42822
   C       -7.71719         1.93298         0.36689
   O       -6.76450         2.33860         1.26255
   C       -5.62117         1.59134         1.29856
   C       -5.46734         0.42223         0.49971
   C       -4.26309        -0.17632         0.67101
   S       -3.30057         0.68026         1.81651
   C       -4.53337         1.85830         2.06315
   O       -6.45671        -0.01520        -0.31970
   C       -8.83304         2.80092         0.26875
   C       -8.87518         4.03535         0.84429
   C       -9.91899         4.97043         0.68855
   S       -9.54236         6.65245         0.98237
   C      -11.07580         7.18755         0.35680
   C      -11.87970         6.07636         0.07957
   C      -11.23566         4.84539         0.23480
   S      -11.98661         3.26779        -0.01434
   C      -13.57831         3.48711        -0.73590
   O      -14.22616         2.49813        -0.95986
   C      -14.18739         4.83472        -1.03495
   O      -15.19217         4.90945        -1.69036
   S      -13.59862         6.30121        -0.24988
   C      -11.34140         8.55994         0.12380
   C      -11.99217         8.99003        -1.00751
   C      -12.58110        10.24161        -1.31396
   C      -13.30740        10.24916        -2.47289
   C      -13.31060         9.01360        -3.15157
   S      -12.21026         7.90393        -2.36592
   C      -14.14654         8.48022        -4.11728
   C      -15.23085         9.02664        -4.83480
   C      -15.98498         8.08777        -5.47937
   C      -15.54814         6.75209        -5.29321
   S      -14.05123         6.75688        -4.38839
   C      -16.25103         5.60548        -5.58058
   C      -15.92670         4.30677        -5.16276
   S      -17.21073         3.09508        -5.13818
   C      -16.19348         1.98700        -4.33952
   C      -14.90655         2.49983        -4.14967
   C      -14.74755         3.79037        -4.61333
   C      -14.12360         1.45605        -3.44090
   O      -12.93838         1.44347        -3.21257
   C      -15.12674         0.36372        -3.16299
   C      -16.31605         0.69665        -3.74736
   C      -14.80368        -0.78184        -2.36542
   C      -15.52427        -1.90324        -2.30716
   H       -5.60106        -2.05911        -5.19953
   H      -10.58612        -2.10517        -5.69018
   H       -5.60041        -3.41476        -7.65374
   H       -9.50172         0.82043        -1.24334
   H       -3.89453        -1.05742         0.19018
   H       -4.38943         2.66639         2.74933
   H       -9.66167         2.47890        -0.33476
   H       -8.00541         4.38926         1.38106
   H      -10.94617         9.28458         0.82080
   H      -12.51414        11.07342        -0.63548
   H      -13.87886        11.09088        -2.82255
   H      -15.44959        10.07949        -4.82343
   H      -16.87883         8.30917        -6.03617
   H      -17.20995         5.73247        -6.06668
   H      -13.82312         4.33476        -4.57305
   H      -17.22132         0.11828        -3.73013
   H      -13.90413        -0.68135        -1.77550
   H      -16.40920        -2.04615        -2.90387
   H      -15.23251        -2.72239        -1.67387
*
