# ORCA input file
# SCF done       -173.880998359628          0.000679883153
! CAM-B3LYP def2-SVP def2/J RIJCOSX Grid4 TightSCF
%maxcore 5000
%tddft
    Mode sTDDFT
    Ethresh 5.0
    maxcore 5000
end

%pal
  nprocs 6
  end
* xyz 0 1
   C       -4.04761        -4.76758        -6.59334
   C       -4.62172        -5.88894        -6.03491
   C       -4.00121        -7.15165        -5.98969
   N       -3.54855        -8.20588        -5.92162
   C       -5.91417        -5.96046        -5.47916
   N       -6.96439        -6.12214        -5.04073
   C       -2.74898        -4.73761        -7.26687
   C       -2.55119        -3.44374        -7.80608
   C       -1.43006        -3.10032        -8.51899
   C       -0.45099        -4.08250        -8.70858
   C       -0.65378        -5.36940        -8.16127
   C       -1.79087        -5.71697        -7.43993
   S        0.67845        -6.43010        -8.51196
   C        1.47607        -5.14551        -9.38026
   C        0.78472        -3.98234        -9.40599
  Br        3.14766        -5.46214       -10.17222
   C       -3.71590        -2.59489        -7.47186
   O       -3.86806        -1.43095        -7.79276
   C       -4.61845        -3.45204        -6.68346
   C       -5.80679        -3.02654        -6.11154
   C       -6.36118        -1.76807        -6.28222
   C       -7.57480        -1.39270        -5.72147
   C       -8.25890        -0.18149        -5.93424
   C       -9.47809        -0.11552        -5.31113
   C       -9.78728        -1.26452        -4.56692
   S       -8.50006        -2.43482        -4.66749
   C      -10.95510        -1.54031        -3.85157
   C      -12.14719        -0.80037        -3.81998
   C      -13.14118        -1.40498        -3.09533
   C      -12.75954        -2.62283        -2.50277
   S      -11.09468        -2.98272        -2.89183
   C      -13.61057        -3.45938        -1.78950
   C      -13.28623        -4.60829        -1.09007
   S      -14.54756        -5.68252        -0.48377
   C      -13.43281        -6.81298         0.29489
   C      -12.11089        -6.33446         0.09270
   C      -12.06029        -5.15242        -0.68013
   O      -10.79749        -4.74597        -0.85767
   C      -10.02232        -5.66488        -0.22861
   N       -8.62284        -5.47805        -0.24671
   O       -7.95629        -6.33359         0.30683
   O       -8.19046        -4.48466        -0.79235
   C      -10.76392        -6.65834         0.36609
   C      -13.97144        -7.93773         0.87457
   C      -13.38896        -8.90228         1.70052
   C      -13.99750       -10.11480         2.05224
   C      -13.26372       -10.88373         2.92443
   C      -12.06626       -10.28331         3.32367
   S      -11.86745        -8.73923         2.53467
   C      -11.12482       -10.76202         4.23969
   C      -11.07232       -12.02919         4.83600
   C      -10.02739       -12.18116         5.70994
   C       -9.22677       -11.03287         5.86122
   S       -9.82387        -9.75893         4.81912
   C       -8.14652       -10.93086         6.72185
   C       -7.37256        -9.81375         7.01826
   S       -6.05247        -9.99873         8.18246
   C       -5.67997        -8.33516         8.06837
   C       -6.53295        -7.67026         7.17265
   C       -7.47142        -8.48187         6.57908
   C       -6.13502        -6.23839         7.18110
   O       -6.62659        -5.31931         6.57479
   C       -4.98259        -6.17629         8.14387
   C       -4.74968        -7.43347         8.64432
   C       -4.32563        -4.93401         8.41391
   C       -3.30640        -4.75789         9.25932
   H       -1.31087        -2.10602        -8.92017
   H       -1.89626        -6.71264        -7.04305
   H        1.12856        -3.08967        -9.89594
   H       -6.35494        -3.72582        -5.49199
   H       -5.84965        -1.04806        -6.90476
   H       -7.84545         0.59840        -6.54846
   H      -10.14171         0.72846        -5.36895
   H      -12.26124         0.13340        -4.33985
   H      -14.13131        -1.00279        -2.97226
   H      -14.65940        -3.19158        -1.80228
   H      -10.35640        -7.48305         0.91056
   H      -15.02387        -8.10015         0.67328
   H      -14.95167       -10.40514         1.64976
   H      -13.57933       -11.84254         3.29338
   H      -11.78312       -12.80180         4.60582
   H       -9.82301       -13.08512         6.25574
   H       -7.89060       -11.84031         7.25145
   H       -8.20485        -8.14642         5.87009
   H       -3.99389        -7.70864         9.35692
   H       -4.72616        -4.09335         7.86105
   H       -2.88313        -5.57210         9.82256
   H       -2.86263        -3.78929         9.40729
*
