# ORCA input file
# SCF done       -134.091303964882          0.000343322966
! CAM-B3LYP def2-SVP def2/J RIJCOSX Grid4 TightSCF
%maxcore 5000
%tddft
    Mode sTDDFT
    Ethresh 5.0
    maxcore 5000
end

%pal
  nprocs 6
  end
* xyz 0 1
   C       -5.47160        21.80878        -4.67395
   C       -6.18016        20.75540        -4.16457
   C       -5.56819        19.59923        -3.64173
   C       -4.19502        19.42301        -3.60136
   C       -3.43449        20.52813        -4.08534
   C       -4.06940        21.70365        -4.63002
   N       -3.10672        22.52512        -5.00793
   O       -1.96094        21.91052        -4.72102
   N       -2.13303        20.71033        -4.16971
   C       -3.48380        18.28675        -3.10732
   C       -3.91296        16.99310        -3.03155
   C       -5.09779        16.37715        -3.52202
   C       -5.13316        15.02907        -3.36413
   C       -3.98424        14.48413        -2.73782
   S       -2.85917        15.75756        -2.33847
   C       -3.71734        13.14487        -2.53091
   C       -4.52274        12.05154        -2.92669
   C       -3.95159        10.83858        -2.70280
   C       -2.66904        10.90210        -2.10145
   S       -2.23040        12.57145        -1.79863
   C       -1.86899         9.81534        -1.85444
   C       -0.60606         9.77581        -1.25428
   S        0.20961        11.09882        -0.43542
   C        1.60631        10.13776         0.00043
   C        1.45192         8.84391        -0.50145
   C        0.21999         8.65980        -1.17593
   O        0.10050         7.39948        -1.63326
   C        1.24663         6.77389        -1.25563
   N        1.40692         5.41354        -1.61241
   O        2.44718         4.88525        -1.26882
   O        0.51058         4.87882        -2.22743
   C        2.10742         7.58854        -0.56545
   C        2.65981        10.64956         0.78538
   S        4.10031         9.71075         1.04137
   C        4.78196        10.93635         2.07709
   C        6.03965        10.69076         2.79367
   O        6.47730        11.42940         3.63702
   O        6.70173         9.56392         2.47248
   C        3.91681        12.01519         2.19913
   C        2.73000        11.84525         1.46844
   C        4.14821        13.19481         3.02913
   C        5.31551        13.91031         3.06701
   C        5.49905        15.02666         3.91839
   C        4.52900        15.47562         4.76460
   C        3.30023        14.78872         4.74241
   C        3.10296        13.65728         3.86745
   N        1.87031        13.22493         4.05707
   O        1.33708        14.02507         4.97915
   N        2.17215        14.96742         5.40482
   H       -5.94075        22.68781        -5.08153
   H       -7.25936        20.80060        -4.15558
   H       -6.20876        18.84252        -3.21752
   H       -2.46062        18.48867        -2.81957
   H       -5.86323        16.93560        -4.02768
   H       -5.94658        14.40873        -3.69482
   H       -5.48623        12.18851        -3.38245
   H       -4.40205         9.89534        -2.95520
   H       -2.23945         8.85186        -2.18189
   H        3.06252         7.30371        -0.17583
   H        6.26595         9.03371         1.79221
   H        1.93294        12.56587         1.45408
   H        6.13677        13.61523         2.43398
   H        6.45707        15.52300         3.89339
   H        4.67018        16.31210         5.42819
*
