# ORCA input file
# SCF done       -216.642530885209          0.000563868788
! CAM-B3LYP def2-SVP def2/J RIJCOSX Grid4 TightSCF
%maxcore 5000
%tddft
    Mode sTDDFT
    Ethresh 5.0
    maxcore 5000
end

%pal
  nprocs 6
  end
* xyz 0 1
   C       -0.66294         3.73631         0.85564
   C        0.26718         4.20237        -0.06154
   C        0.44149         3.57680        -1.28846
   C       -0.31889         2.47167        -1.63972
   C       -1.25513         2.00115        -0.73377
   C       -1.42472         2.62686         0.52254
   C       -2.44146         1.90577         1.27566
   C       -2.97832         2.28943         2.47379
   C       -2.61493         3.46914         3.16028
   N       -2.36795         4.40871         3.77052
   C       -3.99107         1.60132         3.17616
   N       -4.81242         1.09387         3.79744
   C       -2.76337         0.70596         0.50347
   C       -2.19855         0.89944        -0.83078
   C       -2.65743         0.35644        -1.99955
   C       -3.74758        -0.53252        -2.09530
   N       -4.64819        -1.23015        -2.23753
   C       -2.15290         0.69328        -3.27501
   N       -1.78952         0.92550        -4.33775
   C       -3.37995        -0.39558         1.02265
   C       -3.38003        -1.70908         0.49770
   C       -2.47381        -2.30642        -0.36803
   C       -2.79087        -3.63262        -0.62324
   C       -3.94722        -4.06350         0.06092
   S       -4.62126        -2.83692         1.02723
   C       -4.18795        -5.41653        -0.28309
   C       -3.18832        -5.83840        -1.18114
   C       -2.28618        -4.72653        -1.43429
   C       -1.21728        -4.69434        -2.28034
   C       -0.82332        -5.82214        -3.03117
   N       -0.51025        -6.74758        -3.63054
   C       -0.45285        -3.51997        -2.44903
   N        0.15401        -2.55453        -2.56792
   C       -3.33707        -7.16461        -1.57499
   C       -4.44215        -7.75713        -0.98586
   S       -5.31164        -6.65234         0.06786
   C       -4.88176        -9.09348        -1.15001
   C       -6.00062        -9.69325        -0.59334
   C       -6.11170       -11.03044        -0.96461
   C       -5.06580       -11.45079        -1.80947
   S       -3.95390       -10.19846        -2.14958
   C       -5.25506       -12.81372        -2.11895
   C       -6.42870       -13.26924        -1.47250
   C       -7.00493       -12.15665        -0.73102
   C       -8.14010       -12.15925         0.02220
   C       -8.94678       -13.30806         0.18032
   N       -9.61198       -14.23065         0.31786
   C       -8.58595       -11.00081         0.69553
   N       -8.94060       -10.05635         1.23953
   C       -6.68455       -14.60872        -1.71261
   C       -5.71901       -15.19345        -2.53299
   S       -4.48412       -14.03769        -3.01104
   C       -5.74267       -16.55070        -2.91948
   N       -6.75839       -17.30723        -2.50291
   C       -6.53855       -18.53175        -2.99584
   C       -5.30818       -18.57564        -3.80131
   C       -5.07916       -19.94236        -4.31222
   O       -4.17900       -20.34115        -5.02490
   C       -6.20780       -20.69146        -3.75412
   C       -7.08440       -19.79661        -2.96618
   N       -8.12156       -20.48367        -2.44357
   C       -7.94730       -21.72515        -2.83925
   C       -6.76974       -21.92583        -3.65451
   C       -4.77500       -17.30853        -3.75145
   C       -3.56181       -16.82574        -4.31670
   C       -2.75429       -17.61039        -5.07077
   C       -1.51389       -17.18293        -5.60405
   C       -0.57489       -18.01552        -6.12931
   C        0.51440       -17.50933        -7.00507
   O        0.86908       -16.36404        -7.14156
   C        1.02137       -18.71188        -7.71200
   C        0.37064       -19.85735        -7.21473
   C        0.63538       -21.09986        -7.76760
   C        1.57108       -21.19858        -8.79415
   C        2.22984       -20.05190        -9.27019
   C        1.95064       -18.79419        -8.72657
   C        3.21133       -20.12855       -10.29175
   N        4.04164       -20.08539       -11.07909
   C        1.85860       -22.51222        -9.46547
   O        2.17841       -22.57875       -10.61743
   O        1.73197       -23.60832        -8.71017
   C       -0.50352       -19.46362        -6.11082
   C       -0.94018       -20.29367        -5.11490
   C       -1.50801       -19.84910        -3.89960
   N       -1.89167       -19.53479        -2.86549
   C       -0.71946       -21.68689        -5.13613
   N       -0.52604       -22.81791        -5.14247
   H       -0.77687         4.22974         1.80667
   H        0.86834         5.06287         0.18889
   H        1.18009         3.95223        -1.97974
   H       -0.16751         1.98529        -2.58961
   H       -3.88141        -0.28875         1.97519
   H       -1.60693        -1.80091        -0.75333
   H       -2.68582        -7.68698        -2.25285
   H       -6.68513        -9.16572         0.04637
   H       -7.50936       -15.18593        -1.33595
   H       -8.65142       -22.48764        -2.55511
   H       -6.44839       -22.86020        -4.07004
   H       -3.25099       -15.81649        -4.08697
   H       -3.06884       -18.62162        -5.28911
   H       -1.31002       -16.11951        -5.66452
   H        0.08748       -21.97046        -7.43890
   H        2.44852       -17.90986        -9.09440
   H        1.49067       -23.43710        -7.78896
*
