# ORCA input file
# SCF done       -199.110825618236          0.000708854549
! CAM-B3LYP def2-SVP def2/J RIJCOSX Grid4 TightSCF
%maxcore 5000
%tddft
    Mode sTDDFT
    Ethresh 5.0
    maxcore 5000
end

%pal
  nprocs 6
  end
* xyz 0 1
   C       -3.68206         1.13479        -5.42403
   C       -2.98305         2.08655        -6.13041
   C       -2.24651         1.81922        -7.29970
   N       -1.62655         1.66152        -8.25422
   C       -2.92048         3.45365        -5.79837
   N       -2.82699         4.58328        -5.60612
   C       -3.80875        -0.27133        -5.79854
   C       -4.66672        -0.90572        -4.86897
   C       -4.98109        -2.23932        -4.94343
   C       -4.42775        -2.98384        -5.99188
   C       -3.57255        -2.34130        -6.91528
   C       -3.25023        -0.99101        -6.83673
   S       -2.99271        -3.44677        -8.12578
   C       -3.89808        -4.73851        -7.38356
   C       -4.59809        -4.36472        -6.28701
  Br       -3.83358        -6.46120        -8.12557
   C       -5.10798         0.08172        -3.85795
   O       -5.77311        -0.16797        -2.86932
   C       -4.47377         1.35185        -4.24073
   C       -4.46642         2.49095        -3.46397
   C       -5.32841         2.82541        -2.40792
   C       -6.65704         2.43559        -2.30142
   C       -7.32850         2.82969        -1.08706
   O       -8.61949         2.46773        -0.86043
   C       -9.34413         2.16522        -2.03407
   C       -8.54243         1.23429        -2.93446
   O       -7.31460         1.83599        -3.30218
   C       -6.57033         3.51641        -0.16089
  Si       -4.85614         3.78178        -0.87152
   C       -3.44497         2.92718         0.02004
   C       -4.50992         5.59130        -1.21503
   C       -7.05612         3.97141         1.10229
   C       -8.34202         4.39735         1.34898
   C       -8.65885         4.70986         2.72613
   O       -9.83715         5.27367         3.06664
   C      -10.59818         5.76309         1.98241
   C      -10.57606         4.76760         0.82918
   O       -9.25375         4.59371         0.36555
   C       -7.65757         4.47207         3.64679
  Si       -6.09540         4.04044         2.70775
   C       -5.33341         2.39162         3.18261
   C       -4.84262         5.43887         2.74102
   C       -7.81421         4.58874         5.05503
   C       -8.98857         4.30926         5.72531
   C       -8.97769         4.50551         7.14656
   O      -10.01114         4.13469         7.92354
   C      -11.03267         3.39395         7.27979
   C      -11.26598         3.93172         5.87345
   O      -10.08908         3.79508         5.10917
   C       -7.79835         5.01635         7.68560
  Si       -6.54721         5.18025         6.30058
   C       -5.08015         4.03833         6.54634
   C       -6.07142         6.97305         6.04481
   C       -7.56136         5.31238         9.02886
   C       -8.40403         5.52187        10.10407
   C       -9.79875         5.80606        10.21306
   C      -10.60919         6.35913         9.24117
   C      -11.99828         6.52114         9.36000
   N      -13.14441         6.61840         9.36791
   C      -10.11298         6.86359         8.03038
   N       -9.73900         7.29793         7.03335
   C      -10.19148         5.59911        11.60709
   C       -9.02287         5.36602        12.37245
   C       -7.85148         5.36699        11.46628
   O       -6.68511         5.23368        11.77550
   C       -9.05621         5.17563        13.73053
   C      -10.30514         5.20579        14.36374
   C      -11.46528         5.43087        13.58973
   C      -11.43013         5.63489        12.21400
   S      -12.90006         5.42359        14.57187
   C      -11.93131         5.12588        15.99089
   C      -10.60386         5.03499        15.74419
  Br      -12.76601         4.96268        17.66412
   H       -5.63419        -2.69785        -4.21734
   H       -2.58688        -0.54873        -7.56101
   H       -5.20842        -5.03351        -5.70789
   H       -3.65114         3.18734        -3.62111
   H      -10.27328         1.69314        -1.71034
   H       -9.57407         3.09539        -2.57262
   H       -9.07210         1.02504        -3.86525
   H       -8.32720         0.29505        -2.41078
   H       -3.60858         1.85343         0.09366
   H       -3.29455         3.29795         1.03055
   H       -2.50564         3.06483        -0.51283
   H       -5.34404         6.07445        -1.72070
   H       -3.63933         5.71678        -1.85640
   H       -4.31970         6.15586        -0.30539
   H      -11.61053         5.91614         2.36003
   H      -10.18438         6.72385         1.64564
   H      -11.15674         5.13025        -0.02057
   H      -10.97880         3.80323         1.16730
   H       -5.93285         1.86630         3.92295
   H       -4.33698         2.49868         3.60463
   H       -5.24239         1.72910         2.32488
   H       -4.04223         5.28304         2.02172
   H       -4.37663         5.53867         3.71843
   H       -5.29968         6.39771         2.50497
   H      -10.73557         2.33816         7.22905
   H      -11.92410         3.49483         7.90210
   H      -11.55586         4.98988         5.92815
   H      -12.04130         3.36299         5.35842
   H       -5.38008         2.99780         6.65309
   H       -4.52444         4.30033         7.44454
   H       -4.38015         4.08493         5.71629
   H       -6.95639         7.60812         6.04147
   H       -5.54952         7.14398         5.10669
   H       -5.42424         7.33610         6.84144
   H       -6.51146         5.33626         9.30834
   H       -8.14971         5.01084        14.29161
   H      -12.34205         5.80482        11.66553
   H       -9.86329         4.85499        16.50199
*
