# ORCA input file
# SCF done       -212.470752085219          0.000917440319
! CAM-B3LYP def2-SVP def2/J RIJCOSX Grid4 TightSCF
%maxcore 5000
%tddft
    Mode sTDDFT
    Ethresh 5.0
    maxcore 5000
end

%pal
  nprocs 6
  end
* xyz 0 1
   C      -16.19209         0.91723        -4.01384
   C      -16.24965        -0.43438        -3.77397
   C      -17.07181        -1.32644        -4.49115
   N      -17.72140        -2.10268        -5.03466
   C      -15.48854        -1.14044        -2.82011
   N      -14.90215        -1.81329        -2.09528
   C      -16.92139         1.61703        -5.06865
   C      -16.51578         2.97396        -5.07337
   C      -17.01820         3.89656        -5.95675
   C      -17.97465         3.46047        -6.88060
   C      -18.37718         2.10513        -6.86679
   C      -17.86428         1.17053        -5.97467
   S      -19.57320         1.78131        -8.08614
   C      -19.51519         3.44942        -8.59035
   C      -18.64650         4.21091        -7.88466
  Br      -20.61027         4.02858        -9.99943
   C      -15.52060         3.18415        -4.00205
   O      -14.95767         4.23336        -3.74361
   C      -15.37659         1.89347        -3.32584
   C      -14.65701         1.64277        -2.18112
   C      -13.81277         2.47161        -1.43824
   S      -13.38022         4.11325        -1.82502
   C      -12.29752         4.20023        -0.47360
   C      -12.24556         2.98790         0.22952
   C      -13.12917         2.04352        -0.28313
   C      -13.36087         0.68800         0.33723
   N      -14.78941         0.40559         0.40149
   C      -12.67539         0.61627         1.70983
   C      -11.26266         1.16652         1.62122
   C      -11.28560         2.68059         1.35048
   N       -9.96502         3.20471         1.02696
   C      -11.69984         5.46573        -0.25057
   C      -11.03031         5.88915         0.84973
   C      -10.50863         7.19745         0.98793
   S      -10.65533         8.37886        -0.28203
   C       -9.76007         9.55729         0.63452
   C       -9.36322         9.03311         1.86129
   C       -9.80836         7.71955         2.07130
   C       -9.54967         6.95404         3.34320
   N      -10.71851         6.17177         3.72742
   C       -9.09588         7.92454         4.44552
   C       -7.99402         8.83648         3.93191
   C       -8.54055         9.79905         2.86519
   N       -7.48719        10.55898         2.20196
   C       -9.51988        10.86195         0.14175
   C       -9.96090        11.29632        -1.06455
   C       -9.72552        12.54978        -1.68375
   S      -10.30978        12.69971        -3.31400
   C       -9.59831        14.27517        -3.49490
   C       -8.93159        14.64661        -2.32584
   C       -9.03735        13.70280        -1.29599
   C       -8.50044        13.94043         0.09217
   N       -9.53470        13.63919         1.07513
   C       -7.96998        15.37749         0.23380
   C       -7.18191        15.79285        -0.99581
   C       -8.12486        15.91375        -2.20133
   N       -7.41894        16.20363        -3.44490
   C       -9.71032        15.00464        -4.69186
   C      -10.37706        14.57596        -5.80321
   C      -10.50553        15.30251        -7.00155
   C       -9.78507        16.37009        -7.47491
   C       -8.51133        16.94296        -7.11662
   C       -7.43095        16.29224        -6.57150
   C       -6.19475        16.90456        -6.29815
   N       -5.17331        17.35345        -6.02169
   C       -7.40225        14.91471        -6.28309
   N       -7.29047        13.79186        -6.06850
   C       -8.45999        18.28732        -7.68965
   C       -9.55958        18.44724        -8.56791
   C      -10.39203        17.22503        -8.52334
   O      -11.38542        16.98828        -9.17565
   C       -9.76002        19.59225        -9.29846
   C       -8.83923        20.63488        -9.14356
   C       -7.75635        20.47229        -8.24898
   C       -7.54699        19.30888        -7.51769
   S       -6.74927        21.88876        -8.20053
   C       -7.78043        22.66620        -9.37235
   C       -8.82572        21.90820        -9.77794
  Br       -7.37876        24.40683        -9.94687
   H      -16.68618         4.92269        -5.93582
   H      -18.20630         0.14966        -6.00419
   H      -18.48497         5.25855        -8.06190
   H      -14.76637         0.65691        -1.75065
   H      -12.92244        -0.07463        -0.32204
   H      -15.24106         1.01659         1.07357
   H      -14.94612        -0.55448         0.68438
   H      -12.66440        -0.41990         2.05492
   H      -13.25029         1.20814         2.42868
   H      -10.73076         0.66519         0.80712
   H      -10.71808         0.97537         2.54916
   H      -11.62022         3.19776         2.26172
   H       -9.63986         2.81644         0.14840
   H       -9.30342         2.94517         1.74994
   H      -11.86739         6.17855        -1.05137
   H      -10.86304         5.23690         1.68828
   H       -8.74292         6.23005         3.15320
   H      -11.52210         6.78064         3.84431
   H      -10.54511         5.71049         4.61422
   H       -8.74577         7.35342         5.30919
   H       -9.94996         8.53037         4.76329
   H       -7.19750         8.22913         3.49128
   H       -7.56356         9.41429         4.75379
   H       -9.19285        10.53830         3.35430
   H       -6.89510         9.93521         1.66295
   H       -6.90652        11.01670         2.89666
   H       -8.96264        11.50619         0.79803
   H      -10.52953        10.60324        -1.67571
   H       -7.67484        13.23718         0.27307
   H      -10.35034        14.22052         0.91566
   H       -9.18948        13.82861         2.00932
   H       -7.34781        15.44295         1.12940
   H       -8.81661        16.05970         0.36190
   H       -6.41602        15.04335        -1.21405
   H       -6.68366        16.75051        -0.82697
   H       -8.81274        16.75663        -2.03121
   H       -6.81256        15.42497        -3.68511
   H       -6.83028        17.02174        -3.32347
   H       -9.24545        15.97957        -4.67914
   H      -10.91278        13.63638        -5.74719
   H      -11.34574        15.03200        -7.63479
   H      -10.59965        19.68318        -9.96951
   H       -6.70840        19.23084        -6.84586
   H       -9.55847        22.23061       -10.49500
*
