# ORCA input file
# SCF done       -194.966324157437          0.001077237168
! CAM-B3LYP def2-SVP def2/J RIJCOSX Grid4 TightSCF
%maxcore 5000
%tddft
    Mode sTDDFT
    Ethresh 5.0
    maxcore 5000
end

%pal
  nprocs 6
  end
* xyz 0 1
   C       -0.34079         1.91708         4.96831
   C       -0.97456         1.58426         6.13734
   C       -0.32387         1.01426         7.25473
   N        0.12093         0.55174         8.20646
   C       -2.33348         1.76015         6.47314
   N       -3.39727         1.85091         6.89938
   C        1.08594         1.74495         4.72327
   C        1.39980         2.28730         3.45416
   C        2.67195         2.28200         2.93549
   C        3.68576         1.69986         3.70243
   C        3.36326         1.15212         4.96799
   C        2.07854         1.16725         5.49506
   S        4.76091         0.47444         5.74514
   C        5.74604         0.92862         4.37986
   C        5.06514         1.55692         3.39190
  Br        7.57719         0.52770         4.38791
   C        0.17632         2.82311         2.82814
   O        0.12163         3.43085         1.78353
   C       -0.93092         2.49617         3.76822
   C       -2.27177         2.65826         3.57627
   C       -3.01688         3.04498         2.43597
   C       -2.65044         3.26332         1.01423
   N       -3.66300         3.50075         0.24674
   C       -4.77586         3.46037         1.05379
   C       -4.38964         3.20323         2.42389
   C       -5.57949         3.13065         3.25992
   S       -5.47377         2.94770         4.97523
   C       -6.65318         3.29384         2.41960
   C       -6.14980         3.51478         1.02229
   N       -7.17679         3.72087         0.17765
   C       -8.26855         3.67746         0.90563
   C       -8.06877         3.39236         2.31119
   C       -9.08608         3.27706         3.25000
   C      -10.47293         3.68188         3.03699
   N      -11.25188         3.55633         4.07443
   C      -10.48746         3.02838         5.06398
   C       -9.09311         2.82146         4.58894
   C       -8.35844         2.21555         5.59182
   S       -6.81379         1.43537         5.42708
   C       -9.22950         2.09754         6.73443
   C      -10.56073         2.56420         6.34937
   N      -11.44596         2.40695         7.38894
   C      -10.76711         1.91227         8.36659
   C       -9.32383         1.71463         8.05867
   C       -8.32896         1.32713         8.99415
   C       -8.65372         0.76324        10.21755
   C       -7.73609         0.34682        11.17122
   C       -6.30332         0.59556        10.98890
   C       -5.76295         1.15713         9.87955
   S       -6.66924         1.64917         8.52577
   C       -5.67287         0.14840        12.18083
   C       -6.63647        -0.35837        13.05782
   C       -6.06505        -0.82282        14.26406
   C       -4.71752        -0.65604        14.27057
   S       -4.08544         0.06133        12.82364
   C       -7.93069        -0.27385        12.44315
   C       -9.09777        -0.76057        13.05994
   C      -10.32017        -0.91558        12.46724
   C      -11.46762        -1.36327        13.13992
   C      -12.71394        -1.36178        12.56017
   C      -13.94376        -1.88449        13.11472
   C      -14.10088        -2.51346        14.32552
   C      -15.33016        -3.00985        14.80508
   N      -16.29725        -3.43483        15.25570
   C      -13.07473        -2.75816        15.25979
   N      -12.29512        -2.99774        16.06928
   C      -15.00713        -1.64964        12.14169
   C      -14.45156        -0.97551        11.01668
   C      -13.01530        -0.76236        11.23821
   O      -12.25032        -0.17823        10.49004
   C      -15.20732        -0.61745         9.93790
   C      -16.58406        -0.93465         9.92946
   C      -17.14849        -1.61444        11.04712
   C      -16.33983        -1.96341        12.15440
   C      -18.52157        -1.93138        11.02494
   C      -19.30070        -1.59466         9.95121
   C      -18.74390        -0.92384         8.85241
   C      -17.41404        -0.60002         8.84187
   H        2.87580         2.70960         1.96640
   H        1.88850         0.73619         6.46329
   H        5.51559         1.90386         2.48056
   H       -2.90696         2.41348         4.42290
   H       -1.65236         3.24433         0.62180
   H       -9.22388         3.83239         0.43496
   H      -10.86581         4.08169         2.11872
   H      -11.24863         1.67884         9.29818
   H       -9.70785         0.64668        10.40852
   H       -4.70191         1.31946         9.76818
   H       -6.61284        -1.25360        15.08213
   H       -4.02884        -0.91431        15.05110
   H       -8.99489        -1.04816        14.10026
   H      -10.43696        -0.70516        11.41982
   H      -11.35264        -1.71290        14.15750
   H      -14.75946        -0.10189         9.10101
   H      -16.80054        -2.47353        12.98529
   H      -18.94647        -2.44750        11.87344
   H      -20.35130        -1.84383         9.94341
   H      -19.37347        -0.66506         8.01422
   H      -16.97842        -0.08318         7.99933
*
