# ORCA input file
# SCF done       -225.089900242868          0.000686455100
! CAM-B3LYP def2-SVP def2/J RIJCOSX Grid4 TightSCF
%maxcore 5000
%tddft
    Mode sTDDFT
    Ethresh 5.0
    maxcore 5000
end

%pal
  nprocs 6
  end
* xyz 0 1
   C       -4.50529         2.76570         6.31271
   C       -4.80148         3.94966         5.69793
   F       -4.66065         5.10583         6.35978
   C       -5.25731         3.97165         4.36434
   F       -5.54000         5.14768         3.78768
   C       -5.41100         2.80841         3.66362
   C       -5.11423         1.57215         4.26965
   C       -4.65215         1.54822         5.61758
   C       -4.34295         0.32013         6.24583
   C       -4.49010        -0.84974         5.54703
   C       -4.95825        -0.81459         4.20603
   C       -5.26521         0.35412         3.57117
   C       -5.04254        -2.18781         3.67446
   O       -5.42926        -2.48980         2.56534
   C       -4.60603        -3.07534         4.77819
   C       -4.23846        -2.24150         5.91190
   C       -3.69309        -2.64844         7.10264
   C       -3.35723        -1.77121         8.15629
   N       -3.06633        -1.11762         9.05396
   C       -3.35606        -3.97103         7.46152
   N       -3.03464        -5.00984         7.83208
   C       -4.60658        -4.44566         4.81256
   C       -4.84485        -5.40377         3.81048
   C       -5.05241        -5.30836         2.43835
   C       -5.18605        -6.55165         1.84021
   C       -5.08649        -7.62671         2.75809
   S       -4.82079        -7.09459         4.34883
   C       -5.22911        -8.83754         2.04568
   C       -5.41540        -8.54022         0.68269
   C       -5.39408        -7.09409         0.50953
   C       -5.52684        -6.41246        -0.66373
   C       -5.72913        -7.08112        -1.89042
   N       -5.89486        -7.63002        -2.88352
   C       -5.46309        -5.00467        -0.75814
   N       -5.40337        -3.86683        -0.87941
   C       -5.54131        -9.67602        -0.10901
   C       -5.45330       -10.84482         0.63259
   S       -5.21773       -10.52164         2.34626
   C       -5.50282       -12.17797         0.13646
   C       -5.40573       -13.28825         0.94623
   C       -5.40000       -14.60248         0.49046
   C       -5.47367       -14.90858        -0.94004
   C       -5.59920       -13.97772        -1.91165
   S       -5.67085       -12.29389        -1.61170
   C       -5.38011       -16.32349        -1.02919
   C       -5.25124       -16.87804         0.24749
   C       -5.18513       -18.28949         0.19250
   C       -5.25030       -18.74738        -1.08531
   S       -5.40241       -17.50223        -2.27522
   C       -5.26820       -15.80942         1.21772
   C       -5.19605       -15.91492         2.62133
   C       -4.82324       -17.04542         3.28956
   C       -4.79279       -17.21537         4.69487
   C       -5.45886       -16.43236         5.59829
   C       -5.38968       -16.64335         6.98718
   C       -4.52961       -17.53969         7.56307
   C       -3.60103       -18.34184         6.67212
   C       -4.07139       -18.45158         5.20782
   N       -2.99472       -18.76638         4.29253
   C       -1.83212       -18.38340         4.58147
   C       -1.49779       -17.74206         5.86831
   N       -2.29654       -17.73818         6.83713
   F       -0.29839       -17.19076         5.99508
   F       -0.84307       -18.62348         3.72784
   C       -4.40545       -17.78144         8.94696
   C       -4.83366       -17.08594        10.04688
   C       -4.93766       -17.84170        11.32545
   O       -4.52345       -18.95870        11.53993
   C       -5.69667       -16.96887        12.24116
   C       -6.15602       -17.23797        13.49739
   C       -6.90314       -16.25213        14.18018
   C       -7.16213       -15.00596        13.53986
   C       -7.91778       -14.03118        14.22150
   C       -8.39078       -14.28088        15.47931
   C       -8.13143       -15.51272        16.11216
   C       -7.40255       -16.47890        15.47723
   F       -8.60894       -15.73081        17.34545
   F       -9.11033       -13.35260        16.12444
   C       -6.66347       -14.75377        12.24018
   C       -5.93387       -15.71995        11.60132
   C       -5.28027       -15.73698        10.29001
   C       -4.96343       -14.61131         9.56941
   C       -4.14513       -14.59624         8.42361
   N       -3.48408       -14.51044         7.48858
   C       -5.38249       -13.31190         9.91960
   N       -5.72248       -12.23648        10.13482
   H       -4.15622         2.76705         7.33353
   H       -5.76054         2.84126         2.64361
   H       -3.99852         0.33983         7.26672
   H       -5.61556         0.34620         2.55025
   H       -4.38164        -4.89380         5.77328
   H       -5.10540        -4.36271         1.92896
   H       -5.68571        -9.66956        -1.17416
   H       -5.31057       -13.10616         2.00896
   H       -5.65960       -14.23369        -2.95758
   H       -5.10316       -18.94929         1.03581
   H       -5.21929       -19.76709        -1.41602
   H       -5.42569       -15.02182         3.18658
   H       -4.45773       -17.88240         2.71555
   H       -6.08228       -15.62688         5.24303
   H       -6.07120       -16.08727         7.61383
   H       -3.50397       -19.35465         7.08999
   H       -4.78140       -19.28764         5.12496
   H       -3.94347       -18.72958         9.21157
   H       -5.95383       -18.19030        13.96336
   H       -8.12227       -13.08062        13.75412
   H       -7.21213       -17.41715        15.97439
   H       -6.88135       -13.80306        11.78062
*
