# ORCA input file
# SCF done       -255.892297323008          0.000901094462
! CAM-B3LYP def2-SVP def2/J RIJCOSX Grid4 TightSCF
%maxcore 5000
%tddft
    Mode sTDDFT
    Ethresh 5.0
    maxcore 5000
end

%pal
  nprocs 6
  end
* xyz 0 1
   C       -1.84624        -3.04506         0.05362
   C       -2.05924        -3.14121         1.39978
   F       -1.39697        -2.34311         2.24568
   C       -2.98022        -4.07563         1.91530
   F       -3.17260        -4.14559         3.23885
   C       -3.67475        -4.90152         1.07725
   C       -3.47486        -4.82900        -0.31462
   C       -2.54444        -3.88426        -0.83730
   C       -2.31995        -3.79994        -2.22931
   C       -2.98757        -4.65166        -3.06952
   C       -3.90151        -5.60453        -2.53790
   C       -4.16181        -5.68709        -1.20030
   C       -4.40688        -6.45443        -3.63146
   O       -5.35036        -7.21425        -3.59821
   C       -3.58480        -6.08579        -4.82069
   C       -2.90620        -4.83615        -4.51523
   C       -2.29857        -3.98656        -5.39844
   C       -1.66567        -2.78310        -5.01939
   N       -1.14612        -1.79108        -4.76985
   C       -2.26842        -4.17274        -6.79688
   N       -2.21883        -4.27018        -7.93956
   C       -3.44651        -6.83834        -5.94547
   C       -3.83827        -8.20000        -6.08526
   C       -4.34115        -8.76792        -7.22646
   C       -4.73722       -10.11671        -6.92752
   C       -5.30151       -11.01558        -7.83860
   N       -5.78959       -11.75296        -8.57157
   C       -4.48832       -10.37586        -5.59515
   C       -3.88991        -9.22093        -5.01823
   C       -3.35888        -9.09770        -3.74924
   C       -3.83845        -9.77961        -2.52573
   C       -3.11564        -9.27790        -1.47074
   C       -2.17287        -8.32197        -1.97350
   C       -2.32048        -8.21383        -3.34260
   C       -1.32366        -7.53767        -1.18402
   N       -0.67119        -6.84861        -0.53722
   C       -4.96365       -10.63903        -2.49064
   C       -5.31571       -11.43072        -1.44315
   C       -6.42190       -12.31537        -1.47153
   C       -7.35994       -12.49306        -2.46957
   C       -8.29139       -13.50685        -2.20634
   C       -9.38660       -13.91743        -3.01958
   C       -9.64063       -13.37240        -4.32740
   C      -10.86117       -13.20694        -4.93888
   C      -10.76994       -12.71931        -6.24968
   C       -9.48581       -12.51914        -6.67254
   S       -8.35863       -12.91350        -5.42516
   C       -9.02687       -12.00296        -7.98462
   C      -10.19525       -14.91592        -2.48819
   C       -9.96805       -15.52305        -1.22803
   C       -8.90120       -15.08370        -0.39967
   C       -8.07490       -14.10729        -0.93734
   S       -6.69871       -13.40184        -0.13515
   C       -8.73841       -15.61315         0.92893
   C       -9.72778       -15.90856         1.83402
   C       -9.23735       -16.37915         3.06167
   C       -7.87532       -16.45871         3.10632
   S       -7.16912       -15.92520         1.61876
   C       -7.01645       -16.91697         4.22638
   C      -10.83233       -16.60516        -0.99074
   C      -11.74920       -16.81574        -1.99779
   S      -11.53082       -15.68693        -3.30845
   C      -12.71442       -17.85020        -2.11292
   C      -13.21816       -18.34198        -3.29083
   C      -13.93398       -19.55214        -3.00630
   C      -14.50488       -20.38997        -3.97069
   N      -14.91096       -21.11656        -4.76226
   C      -13.85608       -19.81719        -1.65292
   C      -13.12928       -18.76427        -1.03125
   C      -12.91721       -18.60126         0.33026
   C      -12.77674       -19.66178         1.34754
   C      -12.77555       -19.04823         2.57883
   C      -12.88893       -17.63329         2.38482
   C      -12.93008       -17.36519         1.02801
   C      -12.91203       -16.68610         3.41520
   N      -12.89782       -15.90960         4.26117
   C      -12.43469       -21.01562         1.09273
   C      -11.95887       -21.42701        -0.11327
   C      -11.69587       -22.74911        -0.51491
   C      -11.48568       -23.12394        -1.81269
   C      -11.63989       -24.55671        -2.18515
   O      -11.56212       -25.50800        -1.44275
   C      -11.98251       -24.54536        -3.62075
   C      -12.38443       -25.58045        -4.41418
   C      -12.76122       -25.31480        -5.74991
   C      -12.71854       -23.97548        -6.23486
   C      -13.12467       -23.71133        -7.55796
   C      -13.54632       -24.73068        -8.36451
   C      -13.57958       -26.05638        -7.88700
   C      -13.19613       -26.34412        -6.60699
   F      -13.99408       -27.03676        -8.70112
   F      -13.93114       -24.48057        -9.62289
   C      -12.27684       -22.92718        -5.39655
   C      -11.90752       -23.20904        -4.10848
   C      -11.42801       -22.34299        -3.03271
   C      -10.90402       -21.09079        -3.23023
   C      -10.23297       -20.29099        -2.28189
   N       -9.65226       -19.56960        -1.60069
   C      -10.91883       -20.41525        -4.46957
   N      -10.91659       -19.77324        -5.42160
   H       -1.13634        -2.32624        -0.32439
   H       -4.37498        -5.61197         1.48792
   H       -1.60803        -3.07802        -2.59600
   H       -4.86301        -6.41582        -0.82195
   H       -2.98015        -6.39801        -6.81883
   H       -4.48476        -8.28301        -8.17407
   H       -4.58408       -11.33697        -5.12626
   H       -3.24084        -9.50979        -0.43026
   H       -1.69065        -7.63972        -3.99483
   H       -5.57981       -10.64997        -3.37563
   H       -4.70962       -11.44731        -0.54843
   H       -7.38147       -11.88657        -3.35456
   H      -11.79820       -13.38413        -4.44340
   H      -11.62613       -12.52668        -6.87091
   H       -9.70571       -12.32454        -8.77150
   H       -8.01992       -12.34367        -8.21543
   H       -9.01335       -10.91143        -7.97638
   H      -10.77023       -15.73154         1.64352
   H       -9.87328       -16.64059         3.88858
   H       -7.63415       -17.24957         5.05673
   H       -6.37128       -16.10867         4.57008
   H       -6.37586       -17.73919         3.90914
   H      -10.72279       -17.26987        -0.15485
   H      -13.06000       -17.93962        -4.27356
   H      -14.33904       -20.62641        -1.13858
   H      -12.65330       -19.52557         3.53315
   H      -13.09122       -16.40358         0.57716
   H      -12.51014       -21.71103         1.91919
   H      -11.81799       -20.66939        -0.86368
   H      -11.78983       -23.55134         0.20780
   H      -12.42651       -26.58637        -4.02494
   H      -13.10790       -22.70120        -7.93549
   H      -13.23189       -27.36349        -6.25570
   H      -12.26851       -21.92360        -5.78881
*
