# ORCA input file
# SCF done       -204.812160283904          0.000568950603
! CAM-B3LYP def2-SVP def2/J RIJCOSX Grid4 TightSCF
%maxcore 5000
%tddft
    Mode sTDDFT
    Ethresh 5.0
    maxcore 5000
end

%pal
  nprocs 6
  end
* xyz 0 1
   C       -3.92265        -5.14399        -2.73364
   C       -3.86307        -4.59092        -4.00998
   C       -5.10100        -4.12507        -4.72408
   O       -5.07622        -3.21913        -5.50687
   O       -6.23740        -4.76892        -4.43777
   C       -2.62446        -4.39360        -4.64511
   C       -2.53532        -3.86669        -5.95929
   N       -2.34996        -3.48946        -7.02450
   C       -1.43501        -4.74107        -3.99929
   C       -1.51336        -5.29581        -2.74052
   C       -2.74512        -5.51342        -2.09914
   C       -2.50740        -6.13796        -0.79853
   C       -3.47904        -6.56538         0.06689
   C       -4.86161        -6.44930        -0.18949
   N       -5.99338        -6.38882        -0.37051
   C       -3.24222        -7.19844         1.30643
   N       -3.12716        -7.72116         2.32122
   C       -1.07600        -6.32344        -0.65880
   C       -0.40941        -5.71200        -1.84967
   O        0.76179        -5.45574        -1.98928
   C       -0.40702        -6.88874         0.38171
   C        0.94226        -7.32682         0.28817
   C        1.58575        -7.84440        -0.81516
   C        1.25313        -8.20867        -2.20765
   O        0.21588        -8.10443        -2.81633
   N        2.41693        -8.76650        -2.71320
   C        2.53747        -9.24151        -4.06956
   C        3.45946        -8.82842        -1.79272
   O        4.55706        -9.27547        -2.01645
   C        2.90251        -8.25861        -0.55979
   C        3.31120        -8.07353         0.74667
   S        2.00306        -7.38831         1.68311
   C        4.57018        -8.38091         1.31665
   C        4.95824        -8.24865         2.63130
   C        4.35200        -7.79284         3.88683
   O        3.24038        -7.36669         4.09757
   N        5.34594        -7.95209         4.83849
   C        5.16840        -7.62087         6.23079
   C        6.53866        -8.46518         4.32455
   O        7.52710        -8.68044         4.98165
   C        6.27653        -8.66410         2.89417
   C        6.94140        -9.13273         1.78181
   S        5.89899        -9.03205         0.37973
   C        8.29161        -9.55602         1.62911
   S        9.10153        -9.01716         0.20898
   C       10.63113        -9.62000         0.75847
   C       10.48114       -10.25851         2.02059
   C        9.13560       -10.26811         2.49950
   C        8.80972       -10.97859         3.68558
   C        7.42734       -11.28429         4.09340
   O        6.45512       -11.25256         3.37367
   O        7.33519       -11.69928         5.36444
   C        9.84115       -11.52016         4.42721
   C       11.16455       -11.43330         4.01249
   C       11.50350       -10.84644         2.80907
   O       12.77531       -10.82814         2.37381
   C       11.84666        -9.49324         0.07267
   C       12.11878        -8.94779        -1.15944
   C       13.42781        -8.88530        -1.78382
   C       14.62270        -9.32178        -1.27112
   C       15.85720        -9.21194        -1.94699
   N       16.89381        -9.15529        -2.43669
   C       14.83044        -9.93805        -0.01924
   N       15.11708       -10.44865         0.96926
   C       13.25901        -8.25714        -3.09197
   C       11.89016        -7.93634        -3.26952
   C       11.14321        -8.34877        -2.07148
   O        9.94532        -8.21087        -1.88334
   C       11.40583        -7.33537        -4.40564
   C       12.31870        -7.03503        -5.42208
   C       13.68445        -7.35838        -5.23876
   C       14.17243        -7.96581        -4.08763
   S       14.63891        -6.90388        -6.61683
   C       13.21107        -6.29377        -7.41017
   C       12.07630        -6.42283        -6.68172
  Br       13.35302        -5.54628        -9.12379
   H       -4.87213        -5.24754        -2.23044
   H       -6.13872        -5.49574        -3.80735
   H       -0.47885        -4.58467        -4.47452
   H       -0.90191        -7.05783         1.32898
   H        2.40530        -8.41492        -4.76865
   H        1.77652        -9.99672        -4.26855
   H        3.53126        -9.67039        -4.18364
   H        5.03136        -6.54502         6.34906
   H        6.06212        -7.94025         6.76410
   H        4.28961        -8.13250         6.62382
   H        6.41314       -11.92038         5.56788
   H        9.60903       -12.04299         5.34059
   H       11.94382       -11.86713         4.62339
   H       13.37808       -11.24689         3.00327
   H       12.69307        -9.90138         0.60468
   H       10.35689        -7.10545        -4.50706
   H       15.22198        -8.19045        -4.00077
   H       11.10777        -6.10039        -7.01769
*
