# ORCA input file
# SCF done       -193.891593918279          0.000865521322
! CAM-B3LYP def2-SVP def2/J RIJCOSX Grid4 TightSCF
%maxcore 5000
%tddft
    Mode sTDDFT
    Ethresh 5.0
    maxcore 5000
end

%pal
  nprocs 6
  end
* xyz 0 1
   C        6.43034        -2.67189         0.66237
   O        5.57020        -3.67060         0.78794
   C        4.50513        -3.41062        -0.01244
   C        4.70081        -2.19612        -0.67073
   C        5.96838        -1.72148        -0.21906
   C        6.73724        -0.48998        -0.53981
   F        7.89828        -0.45572         0.13111
   F        7.05859        -0.37630        -1.84252
   F        6.09058         0.64739        -0.21908
   O        3.78203        -1.71544        -1.51885
   C        4.01731        -0.50320        -2.20927
   C        3.39661        -4.29607        -0.10839
   C        3.30053        -5.45845         0.57731
   C        2.20659        -6.35944         0.49708
   C        1.04743        -6.27402        -0.25425
   C        0.20877        -7.37049        -0.06223
   C        0.73144        -8.31082         0.85284
   S        2.25234        -7.83057         1.46564
   C       -0.17932        -9.37834         0.97754
   C       -1.28605        -9.12050         0.13939
   C       -1.08443        -7.83737        -0.52166
   C       -1.95253        -7.19779        -1.35864
   C       -3.23608        -7.69586        -1.66561
   N       -4.30217        -8.05159        -1.89621
   C       -1.64695        -5.94703        -1.93533
   N       -1.40794        -4.92519        -2.39817
   C       -2.23485       -10.12583         0.15121
   C       -1.88828       -11.17662         1.00432
   S       -0.34309       -10.86445         1.80909
   C       -2.56263       -12.37186         1.27973
   C       -3.65831       -12.87227         0.60852
   C       -4.35488       -14.06639         0.90947
   C       -5.37973       -14.35536         0.05205
   C       -5.53478       -13.40911        -0.97766
   S       -4.35969       -12.12996        -0.81222
   C       -6.42443       -13.36200        -2.04123
   C       -7.49892       -14.20389        -2.38057
   C       -8.15593       -13.81996        -3.51624
   C       -7.62575       -12.66465        -4.13797
   S       -6.26293       -12.07746        -3.21294
   C       -8.10576       -12.06390        -5.28259
   C       -7.57330       -10.94873        -5.93969
   C       -6.39245       -10.23796        -5.70346
   C       -6.22026        -9.19214        -6.59138
   C       -7.27099        -9.06567        -7.52463
   S       -8.46530       -10.27229        -7.30813
   C       -6.99623        -7.96419        -8.35884
   C       -5.77095        -7.38658        -7.96061
   C       -5.23987        -8.14062        -6.84586
   C       -4.06317        -7.93613        -6.18409
   C       -3.19793        -6.86559        -6.49653
   N       -2.48365        -5.99922        -6.72938
   C       -3.59083        -8.78441        -5.16158
   N       -3.15404        -9.46962        -4.35129
   C       -5.40812        -6.28806        -8.74334
   C       -6.33752        -6.03096        -9.72829
   S       -7.70102        -7.14480        -9.68099
   C       -6.38671        -4.99057       -10.70268
   O       -7.59647        -4.64541       -11.16750
   C       -7.45427        -3.60209       -12.01678
   C       -6.10956        -3.26712       -12.12061
   C       -5.40981        -4.18801       -11.28783
   C       -3.94456        -4.39777       -11.16501
   F       -3.63190        -5.66493       -10.85038
   F       -3.28401        -4.14876       -12.30894
   F       -3.36293        -3.62218       -10.22529
   O       -5.70106        -2.24326       -12.88946
   C       -4.49339        -1.56768       -12.57798
   C       -8.58411        -3.00481       -12.66766
   C       -9.84220        -3.41173       -12.51056
   H        7.34151        -2.70670         1.22634
   H        3.13418        -0.35357        -2.82769
   H        4.89866        -0.57164        -2.85093
   H        4.12081         0.33846        -1.52088
   H        2.62091        -3.96813        -0.78212
   H        4.10673        -5.73987         1.24094
   H        0.83288        -5.45117        -0.91029
   H       -3.14644       -10.09182        -0.41354
   H       -2.16684       -12.97961         2.08307
   H       -4.07907       -14.67782         1.75069
   H       -6.00916       -15.22384         0.12958
   H       -7.76688       -15.05726        -1.78355
   H       -9.00507       -14.33650        -3.92812
   H       -8.99857       -12.49677        -5.71509
   H       -5.69156       -10.48704        -4.93014
   H       -4.52552        -5.69717        -8.58525
   H       -4.63907        -0.53808       -12.90438
   H       -3.65090        -1.99853       -13.12241
   H       -4.28712        -1.57992       -11.50612
   H       -8.32803        -2.17523       -13.31013
   H      -10.08530        -4.24236       -11.87046
   H      -10.65665        -2.92686       -13.01749
*
