# ORCA input file
# SCF done       -189.481820390035          0.000404390301
! CAM-B3LYP def2-SVP def2/J RIJCOSX Grid4 TightSCF
%maxcore 5000
%tddft
    Mode sTDDFT
    Ethresh 5.0
    maxcore 5000
end

%pal
  nprocs 6
  end
* xyz 0 1
   C        6.22112         5.07169         6.77246
   C        5.11379         5.69346         7.27882
   F        5.26143         6.79806         8.03214
   C        3.81457         5.22412         7.04248
   C        3.64486         4.10345         6.27788
   C        4.75146         3.42319         5.72964
   C        6.06486         3.91566         5.98367
   C        7.19152         3.24514         5.45253
   C        7.00591         2.12476         4.69013
   C        5.69011         1.64572         4.42509
   C        4.58638         2.26806         4.93224
   C        5.77120         0.45600         3.55483
   O        4.86673        -0.24594         3.16266
   C        7.21040         0.33203         3.20063
   C        7.96112         1.22027         4.05621
   C        9.27113         1.06543         4.43567
   C       10.07352        -0.01367         4.01584
   N       10.73916        -0.90221         3.72185
   C        9.93101         1.91212         5.34707
   N       10.52323         2.58639         6.06315
   C        7.58098        -0.47052         2.15884
   C        8.74693        -0.42120         1.37515
   S        9.73358         0.99990         1.23955
   C       10.83714         0.26236         0.13718
   C       10.42929        -1.04739        -0.16853
   C        9.23987        -1.42843         0.52541
   C        8.69677        -2.71262         0.34397
   C        9.30307        -3.56632        -0.53318
   F        8.79961        -4.79086        -0.73253
   C       10.44908        -3.17286        -1.26086
   F       10.98644        -4.03116        -2.14112
   C       11.00849        -1.93899        -1.09222
   C       11.96473         1.02053        -0.27748
   C       13.16327         0.53514        -0.67601
   C       14.24137         1.40033        -1.03866
   C       15.51370         1.04871        -1.29898
   C       16.07604        -0.32948        -1.22350
   C       16.51581         2.12772        -1.62536
   N       17.11017         2.60977        -0.39458
   C       18.28687         3.28206        -0.36413
   C       18.68391         4.06282         0.66340
   C       19.93726         4.73555         0.72431
   C       21.01657         4.68724        -0.12373
   C       22.08744         5.52563         0.24551
   C       21.81691         6.24116         1.40332
   S       20.23771         5.85891         2.02245
   C       22.62755         7.20776         2.02260
   C       23.97426         7.44703         1.79205
   C       24.91172         6.72558         0.92296
   O       26.10073         6.78118         1.16653
   N       24.48670         6.06524        -0.22762
   C       23.25337         5.58049        -0.64709
   O       23.14554         5.12380        -1.77051
   C       25.58553         5.74669        -1.15119
   C       26.15470         4.36197        -0.87350
   C       24.47850         8.48534         2.60404
   C       23.54026         9.04064         3.43461
   S       21.99296         8.26163         3.24929
   C       23.72591        10.11459         4.34994
   S       22.47654        10.65925         5.44341
   C       23.44525        11.89497         6.13380
   C       24.69087        11.90674         5.55799
   C       24.83913        10.89711         4.55262
   O       26.07123        10.94600         4.00110
   C       26.70544        11.96733         4.63957
   N       28.03778        12.26288         4.25243
   O       28.58001        13.17409         4.84888
   O       28.53347        11.60337         3.36747
   C       25.93966        12.58834         5.58623
   H        7.20693         5.45851         6.97836
   H        2.97873         5.75609         7.46833
   H        2.65365         3.72282         6.08262
   H        8.17450         3.64102         5.65384
   H        3.59784         1.88457         4.72873
   H        6.82750        -1.18704         1.84616
   H        7.81525        -3.02947         0.87626
   H       11.86190        -1.65949        -1.68595
   H       11.85418         2.09392        -0.17563
   H       13.33796        -0.52841        -0.67986
   H       13.98321         2.45130        -1.10303
   H       15.38482        -1.04007        -0.78365
   H       16.98823        -0.31438        -0.62803
   H       16.34372        -0.67559        -2.22271
   H       16.02202         2.94825        -2.16769
   H       17.31585         1.73114        -2.25527
   H       16.45336         2.82255         0.34367
   H       18.92573         3.12519        -1.22096
   H       18.01440         4.22119         1.49772
   H       21.06731         4.07038        -1.00126
   H       26.35875         6.50347        -1.01695
   H       25.18418         5.79764        -2.16401
   H       26.54653         4.31567         0.13957
   H       26.96134         4.15454        -1.57096
   H       25.38268         3.60553        -0.99589
   H       25.50472         8.80281         2.56628
   H       23.04703        12.52344         6.90277
   H       26.24114        13.41092         6.20081
*
