# ORCA input file
# SCF done       -207.925468759732          0.000759814276
! CAM-B3LYP def2-SVP def2/J RIJCOSX Grid4 TightSCF
%maxcore 5000
%tddft
    Mode sTDDFT
    Ethresh 5.0
    maxcore 5000
end

%pal
  nprocs 6
  end
* xyz 0 1
   C       -5.67558         3.73768        -4.81801
   C       -5.54433         2.54523        -5.47598
   C       -4.60362         2.30591        -6.49467
   N       -3.82784         2.05734        -7.30356
   C       -6.39752         1.44549        -5.24655
   N       -7.11505         0.55509        -5.15188
   C       -5.06231         5.00307        -5.17852
   C       -5.70751         6.04077        -4.46034
   C       -5.38778         7.36454        -4.63813
   C       -4.37943         7.67584        -5.55677
   C       -3.72419         6.62878        -6.24870
   C       -4.04880         5.29005        -6.07444
   S       -2.50498         7.24088        -7.32684
   C       -2.88689         8.87235        -6.84206
   C       -3.87512         8.95493        -5.91983
  Br       -1.94442        10.30645        -7.59940
   C       -6.69520         5.46243        -3.52488
   O       -7.38768         6.05657        -2.73383
   C       -6.55740         3.98580        -3.69100
   C       -6.92654         3.07768        -2.75902
   C       -7.67848         3.40553        -1.56561
   C       -7.08378         3.19316        -0.35377
   S       -7.93595         3.85392         0.97576
   C       -9.20779         4.36598        -0.09193
   C       -8.96404         4.04705        -1.43628
   C       -9.96084         4.31037        -2.40416
   C       -9.76846         3.79765        -3.80575
   C       -9.81700         2.26908        -3.84175
   C      -11.13504         4.95566        -2.02860
   C      -12.16147         5.32852        -3.06536
   C      -13.12489         4.17037        -3.34100
   C      -11.37805         5.27039        -0.66850
   C      -12.51979         5.89362        -0.02388
   C      -12.30177         6.10130         1.31313
   S      -10.80401         5.51220         1.88798
   C      -10.38436         4.99150         0.28129
   C      -13.78679         6.16700        -0.63359
   C      -14.71188         7.08501        -0.26237
   C      -15.88857         7.24628        -1.04039
   C      -17.06482         7.97319        -0.81355
   N      -17.28503         8.68084         0.39511
   O      -16.55895         8.43538         1.34263
   O      -18.18305         9.50117         0.42881
   C      -18.00542         7.91677        -1.87186
   C      -19.33313         8.58504        -1.84577
   C      -17.54118         7.15582        -2.94309
   S      -15.94283         6.53033        -2.61384
   C      -18.19390         6.82258        -4.14476
   C      -17.64736         6.14008        -5.20422
   C      -18.33224         5.65991        -6.34989
   C      -17.55728         4.94622        -7.21508
   C      -16.20349         4.85106        -6.82329
   S      -15.95311         5.69972        -5.32030
   C      -15.15200         4.18973        -7.43645
   C      -15.18437         3.31349        -8.53935
   C      -13.96965         2.76962        -8.84393
   C      -12.91006         3.21934        -8.02348
   S      -13.51702         4.32918        -6.82274
   C      -11.57807         2.86711        -8.13452
   C      -10.54157         3.47761        -7.43442
   C       -9.19740         3.20011        -7.56881
   C       -8.54015         2.07753        -8.18798
   C       -8.98023         0.77712        -8.17759
   C       -8.26530        -0.29454        -8.74484
   N       -7.73039        -1.18928        -9.22624
   C      -10.16014         0.37981        -7.51709
   N      -11.10654         0.03184        -6.96800
   C       -7.23831         2.54448        -8.65668
   C       -7.02621         3.85103        -8.14719
   C       -8.17927         4.23302        -7.30264
   O       -8.26055         5.19544        -6.56382
   C       -5.92396         4.59889        -8.47749
   C       -4.96934         4.01768        -9.31989
   C       -5.17438         2.69996        -9.79351
   C       -6.30507         1.95198        -9.48137
   S       -3.86007         2.16793       -10.78954
   C       -3.05837         3.69522       -10.55673
   C       -3.74284         4.56753        -9.77903
  Br       -1.39606         4.00721       -11.36131
   H       -5.90197         8.13693        -4.08842
   H       -3.52043         4.52225        -6.61540
   H       -4.23588         9.88066        -5.51031
   H       -6.51832         2.07378        -2.81170
   H       -6.12329         2.74382        -0.18575
   H       -8.82258         4.14972        -4.21383
   H      -10.54609         4.17127        -4.46358
   H       -8.99244         1.82690        -3.28907
   H       -9.75931         1.91445        -4.86843
   H      -10.74655         1.90833        -3.40720
   H      -11.67003         5.62091        -3.99293
   H      -12.70610         6.20977        -2.72777
   H      -12.63082         3.38837        -3.91024
   H      -13.98105         4.51924        -3.91187
   H      -13.47853         3.72549        -2.41299
   H      -12.99993         6.51906         2.01224
   H      -14.05279         5.52863        -1.46128
   H      -14.58301         7.72210         0.59894
   H      -19.83558         8.39834        -0.89835
   H      -19.96488         8.24302        -2.65957
   H      -19.20843         9.66477        -1.92478
   H      -19.23390         7.10340        -4.23916
   H      -19.38461         5.83729        -6.48584
   H      -17.92000         4.49930        -8.12315
   H      -16.09637         3.09104        -9.06359
   H      -13.80092         2.06549        -9.63897
   H      -11.34301         2.11706        -8.87690
   H      -10.78663         4.34944        -6.83719
   H       -5.80455         5.60448        -8.10565
   H       -6.43242         0.95913        -9.88040
   H       -3.39280         5.55382        -9.53366
*
