# ORCA input file
# SCF done       -171.081214567317          0.000792715476
! CAM-B3LYP def2-SVP def2/J RIJCOSX Grid4 TightSCF
%maxcore 5000
%tddft
    Mode sTDDFT
    Ethresh 5.0
    maxcore 5000
end

%pal
  nprocs 6
  end
* xyz 0 1
   C       -3.06984         3.85665         2.25519
   C       -3.14730         2.55521         2.69946
   C       -2.41417         2.04885         3.78973
   N       -1.85019         1.57628         4.67240
   C       -3.94205         1.53842         2.13583
   N       -4.54296         0.64604         1.72982
   C       -2.19808         4.88489         2.82323
   C       -2.35973         6.07695         2.07698
   C       -1.66611         7.22753         2.35685
   C       -0.76615         7.20302         3.42851
   C       -0.61223         6.00925         4.16914
   C       -1.31525         4.84382         3.88481
   S        0.54972         6.19645         5.44906
   C        0.80881         7.85406         4.97473
   C        0.06529         8.24945         3.91507
  Br        2.03805         8.90731         5.92414
   C       -3.35425         5.84850         1.00576
   O       -3.72250         6.66816         0.18519
   C       -3.78514         4.44787         1.15591
   C       -4.72813         3.82780         0.35739
   C       -5.36432         4.41312        -0.72980
   C       -6.26893         3.73471        -1.52592
   C       -6.89289         4.22283        -2.69571
   C       -7.69196         3.31271        -3.32441
   C       -7.74834         2.06347        -2.67221
   S       -6.76430         2.08574        -1.22307
   C       -8.41866         0.92178        -3.07122
   C       -9.12245         0.70453        -4.28024
   C       -9.59519        -0.56039        -4.41760
   C       -9.30346        -1.43002        -3.32453
   S       -8.42560        -0.52338        -2.09404
   C       -9.74657        -2.71682        -3.24738
   C       -9.57315        -3.74954        -2.26358
   C       -8.37581        -4.01875        -1.58986
   C       -8.27076        -5.13091        -0.75759
   S       -6.68120        -5.37225        -0.06432
   C       -5.96123        -4.18991        -1.26082
   C       -7.08748        -3.25339        -1.68100
   C       -9.35075        -5.97752        -0.57065
   C      -10.53931        -5.75026        -1.26658
   C      -11.55686        -6.83227        -1.05443
   C      -11.21105        -7.51273         0.26225
   S       -9.39255        -7.37632         0.46770
   C      -10.66848        -4.64898        -2.09120
   C      -11.93677        -4.38498        -2.76610
   S      -12.61024        -5.56038        -3.86244
   C      -13.93132        -4.51972        -4.21607
   C      -13.87177        -3.34798        -3.53066
   C      -12.73317        -3.27330        -2.68379
   C      -12.48653        -2.10249        -1.78609
   C      -13.74739        -1.25588        -1.57303
   C      -14.40055        -0.97887        -2.93570
   C      -14.87827        -2.24789        -3.63640
   C      -14.72190        -1.83096        -0.56653
   C      -15.28569        -1.04471         0.34389
   C      -15.00406        -3.27312        -0.53132
   S      -13.82195        -4.29045         0.23301
   C      -14.81755        -5.67808         0.01560
   C      -15.98414        -5.39068        -0.60669
   C      -17.01893        -6.42047        -0.91969
   C      -16.11773        -3.99046        -0.90683
   C      -17.31629        -3.49865        -1.55028
   C      -17.76159        -2.23328        -1.61125
   C      -18.97760        -1.81708        -2.27690
   C      -19.67856        -2.52305        -3.16093
   H       -1.81056         8.11945         1.76738
   H       -1.16053         3.96039         4.48111
   H        0.09990         9.23686         3.49198
   H       -4.98928         2.80002         0.57820
   H       -5.12770         5.43464        -0.98965
   H       -6.71900         5.22547        -3.04358
   H       -8.23588         3.50942        -4.23094
   H       -9.23967         1.48006        -5.01536
   H      -10.14214        -0.91564        -5.27346
   H      -10.40484        -3.00285        -4.06192
   H       -5.58214        -4.77397        -2.10101
   H       -5.13709        -3.66997        -0.77943
   H       -6.91250        -2.86745        -2.68571
   H       -7.12786        -2.40793        -0.98817
   H      -11.48056        -7.54520        -1.88169
   H      -12.57222        -6.43982        -1.04168
   H      -11.48027        -8.56563         0.28858
   H      -11.66386        -6.99819         1.11110
   H      -14.67560        -4.83762        -4.91883
   H      -11.72874        -1.45607        -2.23934
   H      -12.08285        -2.44286        -0.82918
   H      -13.42584        -0.28945        -1.16822
   H      -13.65709        -0.47709        -3.56091
   H      -15.24491        -0.29913        -2.80799
   H      -15.07680        -2.03291        -4.68995
   H      -15.82107        -2.58014        -3.19739
   H      -15.97275        -1.43053         1.07854
   H      -15.08729         0.01353         0.38172
   H      -14.48288        -6.63121         0.37672
   H      -17.16558        -6.50132        -1.99684
   H      -17.97201        -6.15925        -0.46173
   H      -16.70593        -7.39084        -0.54233
   H      -17.92254        -4.27274        -2.00011
   H      -17.20602        -1.44648        -1.12330
   H      -19.31458        -0.81940        -2.02388
   H      -19.38305        -3.50799        -3.47948
   H      -20.57466        -2.13078        -3.60916
*
