# ORCA input file
# SCF done       -192.795518411582          0.000907129459
! CAM-B3LYP def2-SVP def2/J RIJCOSX Grid4 TightSCF
%maxcore 5000
%tddft
    Mode sTDDFT
    Ethresh 5.0
    maxcore 5000
end

%pal
  nprocs 6
  end
* xyz 0 1
   C      -12.40593         4.14435         4.86470
   C      -12.18805         3.38698         5.98932
   C      -12.64366         3.73824         7.27688
   N      -12.99085         3.96050         8.34887
   C      -11.48944         2.16390         6.05246
   N      -10.93599         1.16868         6.21022
   C      -13.12432         5.41640         4.84046
   C      -13.14849         5.89855         3.50925
   C      -13.75022         7.08110         3.15591
   C      -14.35928         7.82999         4.16866
   C      -14.33117         7.34224         5.49613
   C      -13.72295         6.14399         5.85190
   S      -15.14127         8.42266         6.59059
   C      -15.50045         9.49926         5.26703
   C      -15.03922         9.07465         4.06705
  Br      -16.44990        11.08337         5.59419
   C      -12.44821         4.93756         2.63494
   O      -12.30611         5.03918         1.42976
   C      -11.98340         3.85649         3.50936
   C      -11.24237         2.76474         3.12501
   C      -10.79753         2.36217         1.86061
   S      -11.32505         3.02601         0.33244
   C      -10.54229         1.75973        -0.50938
   C       -9.87546         0.87555         0.29007
   C       -9.08548        -0.28758        -0.21077
   C       -9.98768         1.22332         1.65865
   C       -9.32123         0.49551         2.69768
   C       -8.77580         1.04325         3.80788
   C       -8.13354         0.31529         4.85282
   C       -8.28227        -1.00828         5.08318
   C       -7.59155        -1.72755         6.08934
   N       -7.72295        -3.01006         6.28401
   C       -6.88913        -3.44305         7.23204
   C       -6.07410        -2.49338         7.80108
   S       -6.38581        -0.95026         7.14503
   C       -5.16397        -3.07558         8.80977
   C       -5.30721        -4.61166         8.52452
   C       -6.71471        -4.78622         7.88959
   C       -6.89943        -5.92223         6.87418
   C       -6.46940        -7.30912         7.33704
   C       -7.79542        -4.84264         9.00693
   C       -7.53769        -5.75662        10.20240
   N       -4.14801        -5.04669         7.75297
   C       -3.00248        -4.44815         8.35463
   S       -3.39305        -2.65535         8.62587
   C       -4.12371        -5.03059         6.34537
   O       -4.48578        -3.84434         5.75797
   C       -4.52808        -3.76562         4.39653
   C       -4.93649        -2.62722         3.76851
   F       -5.27293        -1.47283         4.34315
   S       -4.96433        -2.76132         2.04771
   C       -3.68958        -6.12015         5.71468
   S       -3.56261        -6.33976         3.97715
   C       -4.19017        -4.78269         3.45814
   C       -4.36879        -4.40784         2.14608
   C       -4.15457        -5.09026         0.91024
   C       -3.61406        -6.31629         0.77049
   C       -3.36964        -7.03029        -0.45684
   C       -3.90022        -6.73007        -1.71119
   O       -4.72943        -5.65561        -1.78337
   C       -5.82061        -5.63439        -2.68360
   C       -3.54315        -7.50449        -2.86997
   O       -4.04667        -7.05230        -4.05353
   C       -3.70663        -7.73313        -5.23733
   C       -2.72619        -8.60363        -2.77859
   C       -2.21368        -8.95865        -1.52342
   C       -2.52277        -8.16790        -0.36775
   N       -1.94178        -8.64235         0.73078
   S       -1.09466        -9.95616         0.34133
   N       -1.41759        -9.98707        -1.23792
   H      -13.75011         7.41867         2.13136
   H      -13.73065         5.81859         6.87848
   H      -15.17208         9.61454         3.14734
   H      -10.95712         2.08054         3.91446
   H      -10.59410         1.73272        -1.58143
   H       -9.10137        -0.31567        -1.29691
   H       -9.50074        -1.22105         0.16797
   H       -8.05205        -0.21842         0.12564
   H       -9.19537        -0.56343         2.51959
   H       -8.75235         2.12158         3.90120
   H       -7.49441         0.88465         5.51471
   H       -8.95319        -1.60886         4.48600
   H       -5.45512        -2.81092         9.83022
   H       -5.22892        -5.16623         9.46307
   H       -7.95669        -5.93831         6.60159
   H       -6.35895        -5.66778         5.96324
   H       -7.18275        -7.72741         8.04108
   H       -5.48809        -7.27563         7.80239
   H       -6.41898        -7.97759         6.48029
   H       -7.94679        -3.83002         9.39051
   H       -8.72902        -5.13934         8.52646
   H       -6.79931        -5.33206        10.87887
   H       -7.20304        -6.74263         9.89937
   H       -8.46363        -5.86875        10.76259
   H       -2.11868        -4.52692         7.72693
   H       -2.81431        -4.88936         9.33589
   H       -3.41028        -6.99468         6.27153
   H       -4.44519        -4.52840         0.03672
   H       -3.26524        -6.85516         1.63944
   H       -6.54069        -4.94364        -2.24273
   H       -6.28027        -6.61916        -2.78437
   H       -5.52332        -5.26971        -3.66854
   H       -2.62597        -7.72530        -5.40719
   H       -4.20288        -7.18739        -6.03846
   H       -4.06726        -8.76612        -5.22434
   H       -2.45015        -9.19445        -3.63427
*
