# ORCA input file
# SCF done       -167.373955839943          0.000224864328
! CAM-B3LYP def2-SVP def2/J RIJCOSX Grid4 TightSCF
%maxcore 5000
%tddft
    Mode sTDDFT
    Ethresh 5.0
    maxcore 5000
end

%pal
  nprocs 6
  end
* xyz 0 1
   C        9.05524        -6.70408         9.59826
   C        9.02363        -7.90836         9.01217
   C       10.11825        -8.81676         8.81803
   C        9.79377        -9.95051         8.16130
   C        8.42286       -10.03974         7.78559
   S        7.55237        -8.61911         8.33131
   C        7.81355       -11.03716         7.06832
   C        8.39844       -12.18992         6.48087
   C        7.54460       -12.89763         5.70050
   C        6.23694       -12.33987         5.59112
   S        6.11032       -10.95308         6.65640
   C        5.25816       -12.81635         4.76148
   C        3.98012       -12.30099         4.43896
   S        2.78643       -13.49774         3.96878
   C        1.55382       -12.30338         3.89143
   C        2.00445       -11.05675         4.17838
   C        1.13980        -9.84032         4.15561
   C        3.40940       -11.02422         4.45431
   C        4.10511        -9.78568         4.62588
   C        5.40818        -9.58098         4.32155
   C        6.13592        -8.41995         4.69580
   C        7.47555        -8.31479         4.53801
   C        8.27375        -7.27327         5.06999
   N        9.56309        -7.18867         4.91679
   C       10.06713        -6.12236         5.54994
   C        9.15457        -5.34660         6.22953
   S        7.57408        -5.97866         6.08408
   C        9.88915        -4.32406         6.99692
   C       11.12020        -4.13796         6.09651
   C       11.47920        -5.58465         5.63778
   C       12.28943        -6.30066         6.73555
   C       12.52969        -7.78071         6.46078
   C       12.18576        -5.70832         4.28042
   C       11.42803        -5.10501         3.10159
   N       12.01126        -3.28795         6.86822
   C       11.25674        -2.49861         7.82944
   S        9.46918        -2.60209         7.40599
   C       13.09115        -2.67816         6.27900
   S       14.19887        -1.80656         7.30063
   C       15.24385        -1.43181         5.93747
   C       16.53338        -0.78744         6.17481
   O       17.42430        -0.74288         5.36644
   O       16.71365        -0.24745         7.40250
   C       14.73129        -1.97236         4.77078
   C       13.52361        -2.68105         4.98592
   C       15.25158        -1.84539         3.42705
   C       15.84642        -0.74988         2.93683
   C       16.34181        -0.57085         1.59163
   C       16.71030        -1.59503         0.72545
   O       16.53965        -2.87300         1.16088
   C       17.53093        -3.84801         0.89377
   C       17.21611        -1.30896        -0.59104
   O       17.46740        -2.40216        -1.36582
   C       17.94914        -2.20588        -2.67295
   C       17.39871        -0.02106        -1.02692
   C       17.05930         1.03299        -0.16687
   C       16.52009         0.76086         1.13463
   N       16.23992         1.87703         1.80162
   S       16.63118         3.13977         0.88280
   N       17.16254         2.33789        -0.41165
   H        9.97104        -6.32463        10.01860
   H        8.17666        -6.09155         9.68535
   H       11.10187        -8.57304         9.17793
   H       10.49010       -10.73455         7.92203
   H        9.43234       -12.44205         6.63332
   H        7.81424       -13.78381         5.15275
   H        5.46898       -13.78420         4.31817
   H        0.55620       -12.59805         3.63050
   H        0.11568       -10.11035         3.91134
   H        1.50182        -9.13038         3.41296
   H        1.14822        -9.34932         5.12813
   H        3.52988        -8.96500         5.03361
   H        5.96226       -10.36088         3.81595
   H        5.59972        -7.63902         5.22001
   H        8.02661        -9.08483         4.01473
   H       10.16522        -4.75638         7.96738
   H       10.77924        -3.59196         5.20252
   H       13.24476        -5.78248         6.84658
   H       11.75007        -6.20798         7.68047
   H       13.25307        -7.92354         5.66329
   H       11.59859        -8.26825         6.18171
   H       12.92092        -8.26281         7.35373
   H       13.18751        -5.28224         4.35617
   H       12.28820        -6.77435         4.07852
   H       10.45216        -5.57427         3.00549
   H       11.98420        -5.28495         2.18437
   H       11.28051        -4.03108         3.19518
   H       11.55751        -1.45047         7.82146
   H       11.37616        -2.90271         8.84023
   H       15.93653        -0.33034         7.97017
   H       12.98021        -3.12578         4.17675
   H       15.04769        -2.68634         2.78133
   H       15.95571         0.12811         3.55665
   H       18.53183        -3.41348         0.89667
   H       17.35376        -4.34929        -0.06006
   H       17.45216        -4.57108         1.70650
   H       18.07172        -3.20392        -3.09106
   H       18.91497        -1.69166        -2.67183
   H       17.23627        -1.64196        -3.28210
   H       17.77748         0.21364        -2.00640
*
