# ORCA input file
# SCF done       -164.588558288005          0.000268811884
! CAM-B3LYP def2-SVP def2/J RIJCOSX Grid4 TightSCF
%maxcore 5000
%tddft
    Mode sTDDFT
    Ethresh 5.0
    maxcore 5000
end

%pal
  nprocs 6
  end
* xyz 0 1
   C       20.98550       -16.28801         7.72956
   C       20.17741       -15.22788         7.86127
   C       20.23251       -14.19928         8.86134
   C       19.27933       -13.25034         8.74039
   C       18.39251       -13.44376         7.64299
   S       18.82799       -14.89685         6.76302
   C       17.33409       -12.65275         7.27228
   C       16.88103       -11.45774         7.88870
   C       15.80215       -10.90056         7.28375
   C       15.33244       -11.61734         6.14873
   S       16.32364       -13.04178         5.88930
   C       14.27649       -11.26081         5.35590
   C       13.82682       -12.00608         4.24220
   O       14.42530       -13.20953         3.98916
   C       13.83996       -13.78808         2.95772
   C       12.82577       -12.98258         2.47832
   N       11.98189       -13.27144         1.40140
   O       12.16766       -14.30269         0.78688
   O       11.09626       -12.46195         1.13758
   C       12.80753       -11.80123         3.29778
   N       11.94606       -10.78042         3.08167
   C       11.94539        -9.52915         3.64798
   C       10.98766        -8.61685         3.44268
   C        9.76731        -8.86908         2.60850
   C       11.09112        -7.25395         4.07967
   N       12.46103        -6.87121         4.31743
   C       12.86607        -6.01687         5.29712
   C       12.10709        -5.50116         6.28078
   C       12.60001        -4.65103         7.34009
   C       11.67144        -3.84290         8.06809
   C       12.05894        -3.06605         9.12370
   C       13.41167        -3.02376         9.51080
   C       14.35910        -3.79701         8.77873
   C       13.92876        -4.59932         7.71267
   N       15.66854        -3.77594         9.11599
   C       16.00936        -3.02218        10.12727
   C       15.07121        -2.25512        10.84537
   N       13.79809        -2.25374        10.54526
   N       10.30853        -3.85228         7.69752
   C        9.29363        -4.22180         8.54128
   O        9.43217        -4.62982         9.66994
   C        7.97245        -4.01837         7.79398
   C        8.42492        -3.54524         6.45084
   C        9.81666        -3.43598         6.46174
   C       10.51595        -2.96939         5.36770
   C        9.80100        -2.62625         4.22374
   C        8.41674        -2.75223         4.20906
   C        7.71757        -3.19995         5.32141
   C       10.52508        -2.09582         3.02335
   C        7.14501        -2.95996         8.55842
   C        8.07863        -1.81508         8.97171
   O        8.71951        -1.09363         8.24487
   N        8.08105        -1.77129        10.33321
   C        7.26038        -2.73913        10.89641
   C        6.64456        -3.46641         9.87457
   C        5.76870        -4.48046        10.18691
   C        5.51632        -4.75263        11.52516
   C        6.13134        -4.03453        12.54278
   C        5.87071        -4.37325        13.97913
   C        7.01729        -3.00642        12.22580
   H       21.79384       -16.45177         8.42006
   H       20.85497       -17.00341         6.93855
   H       20.98762       -14.22046         9.62709
   H       19.17331       -12.40885         9.40199
   H       17.36597       -11.04740         8.75618
   H       15.32013        -9.99478         7.60779
   H       13.73488       -10.36860         5.62285
   H       14.18402       -14.74878         2.63139
   H       11.26498       -10.96998         2.34820
   H       12.79399        -9.29520         4.26903
   H        9.43172        -9.90024         2.69081
   H        9.96915        -8.66311         1.55630
   H        8.95549        -8.21916         2.92612
   H       10.57017        -7.27342         5.04182
   H       10.57847        -6.51563         3.44409
   H       13.06703        -6.96454         3.51759
   H       13.91955        -5.77835         5.24571
   H       11.04702        -5.70024         6.29623
   H       11.34141        -2.47056         9.66481
   H       14.67216        -5.20118         7.21468
   H       17.05919        -3.01140        10.39077
   H       15.37456        -1.63325        11.67718
   H        7.40408        -4.95191         7.75892
   H       11.58943        -2.86436         5.39756
   H        7.87305        -2.48181         3.31585
   H        6.64046        -3.27540         5.29659
   H       11.53553        -2.49468         2.97135
   H       10.59528        -1.00979         3.08653
   H        9.99580        -2.34502         2.10647
   H        6.34982        -2.59121         7.90519
   H        8.66464        -1.14401        10.86421
   H        5.28381        -5.05587         9.41199
   H        4.83093        -5.54690        11.78176
   H        4.93795        -4.92064        14.08812
   H        5.82588        -3.47299        14.58810
   H        6.67817        -4.99729        14.36269
   H        7.50570        -2.44325        13.00670
*
