# ORCA input file
# SCF done       -139.578500455576          0.000966182369
! CAM-B3LYP def2-SVP def2/J RIJCOSX Grid4 TightSCF
%maxcore 5000
%tddft
    Mode sTDDFT
    Ethresh 5.0
    maxcore 5000
end

%pal
  nprocs 6
  end
* xyz 0 1
   C       -4.92201        -7.62395        -5.67516
   C       -5.29143        -6.71946        -4.75647
   C       -6.04090        -5.51437        -4.95977
   C       -6.26406        -4.79870        -3.83320
   C       -5.71121        -5.36918        -2.65610
   S       -4.88763        -6.86788        -3.03826
   C       -5.77383        -4.87055        -1.37317
   C       -6.40616        -3.68831        -0.92755
   C       -6.28562        -3.47247         0.41223
   C       -5.55230        -4.46534         1.10155
   S       -5.02061        -5.69940        -0.02155
   C       -5.28526        -4.46963         2.45470
   C       -4.56347        -5.41501         3.17456
   S       -3.84396        -6.82095         2.45360
   C       -3.16836        -7.39284         3.95944
   C       -3.51809        -6.51339         5.01122
   C       -4.29460        -5.40085         4.56651
   C       -4.72283        -4.42674         5.47909
   C       -4.39857        -4.55819         6.80178
   F       -4.80385        -3.62882         7.68670
   C       -3.65309        -5.66222         7.24934
   F       -3.36403        -5.77689         8.55965
   C       -3.21970        -6.62543         6.37952
   C       -2.41934        -8.57435         3.88134
   C       -1.68180        -9.20117         4.85142
   C       -0.97988       -10.39874         4.63596
   S       -1.08496       -11.15540         3.07045
   C       -0.05521       -12.46773         3.50818
   C        0.35712       -12.33224         4.84715
   C       -0.15718       -11.16363         5.49691
   C        0.19902       -10.92008         6.84941
   C       -0.27469        -9.72923         7.62556
   C        1.02019       -11.82446         7.47979
   C        1.51306       -12.97091         6.84230
   C        1.19060       -13.22863         5.54200
   C        0.32521       -13.50529         2.61749
   C       -0.02684       -13.68396         1.32670
   C       -0.96902       -12.79800         0.57868
   C        0.46535       -14.90352         0.59015
   N       -0.52615       -15.96277         0.62853
   C       -0.59831       -16.81858         1.68834
   C       -1.69929       -17.51643         2.03559
   C       -1.72428       -18.50014         3.06766
   S       -0.24985       -18.83065         3.93245
   C       -0.98564       -20.01811         4.91168
   C       -2.31611       -20.17613         4.60987
   C       -2.76321       -19.30564         3.54896
   C       -4.13240       -19.37913         3.15553
   C       -4.71494       -18.51883         2.07501
   C       -4.94828       -20.27187         3.79591
   C       -4.49887       -21.12262         4.82823
   C       -3.20564       -21.08199         5.23735
   H       -5.18204        -7.49195        -6.71050
   H       -4.35182        -8.49529        -5.41189
   H       -6.38080        -5.23823        -5.94214
   H       -6.80881        -3.87176        -3.80273
   H       -6.92938        -3.03292        -1.60023
   H       -6.70146        -2.62556         0.92974
   H       -5.68428        -3.63474         3.01471
   H       -5.30520        -3.57726         5.16258
   H       -2.66900        -7.45864         6.77683
   H       -2.42257        -9.02850         2.89642
   H       -1.61255        -8.76030         5.82572
   H        0.04188        -8.80165         7.14966
   H        0.14455        -9.75127         8.62893
   H       -1.36051        -9.73402         7.71714
   H        1.29891       -11.64915         8.50884
   H        2.14984       -13.64783         7.39135
   H        1.56582       -14.11199         5.05039
   H        0.99934       -14.23311         3.04952
   H       -1.93205       -12.72781         1.08621
   H       -1.13178       -13.16833        -0.43096
   H       -0.56971       -11.78524         0.51168
   H        1.38295       -15.28991         1.03842
   H        0.66357       -14.66204        -0.45908
   H       -1.41587       -15.71820         0.21375
   H        0.33618       -16.96715         2.21167
   H       -2.60952       -17.33648         1.48989
   H       -0.40874       -20.53511         5.65166
   H       -4.60986       -17.46301         2.32238
   H       -5.77475       -18.73576         1.95911
   H       -4.22457       -18.70972         1.12096
   H       -5.98752       -20.33394         3.50507
   H       -5.20170       -21.80248         5.28697
   H       -2.83367       -21.71797         6.02654
*
