99
 SCF done       -187.704494929776          0.000564178318
C          -0.10799665297249   -1.77738517064883   -1.31638926233834
C          -1.39492107175872   -1.47981672741374   -1.66859776337872
F          -2.29934851673668   -2.47113999777276   -1.77246277343185
C          -1.81930864350648   -0.17003259251684   -1.93026830369894
C          -0.91505771924568    0.85042835106919   -1.82969650038018
C           0.42482425651796    0.60038695949007   -1.46951743325376
C           0.83675158974347   -0.73835250091733   -1.20718548354334
C           2.17431407585520   -1.01469122170205   -0.83885270355846
C           3.07161983344342    0.01436542846409   -0.73647706439545
C           2.65422418759861    1.34836193109520   -1.01155708176293
C           1.36998290721543    1.64502511883608   -1.36531920009886
C           3.80717960492825    2.25480528973014   -0.86835533588358
O           3.83259094794736    3.45800988487767   -1.00915531394625
C           4.96513961845067    1.37764530424119   -0.55597730831893
C           4.48307362025708    0.03219273440986   -0.34894052795171
C           5.15403843949848   -1.01874401272587    0.22137515228599
C           6.41870222646899   -0.94803119327813    0.83625153793016
N           7.40951304484979   -0.98131064769425    1.41554041710563
C           4.61686807754710   -2.31601906993013    0.35853940657618
N           4.24987720192662   -3.39680591257571    0.48408682219876
C           6.21870707327719    1.91129559620924   -0.64914261479618
C           7.44103496356233    1.28567829546989   -0.63858386791941
C           8.56308321557378    0.80779542759512   -0.67731134081609
C           9.82382984095307    0.25859921731886   -0.69960968063637
S          11.21935885944165    1.23789342082567   -1.08696864701081
C          12.26623838791930   -0.13701720969947   -0.88170450732349
C          11.55304503917545   -1.27218532963647   -0.53250115318389
C          10.18642196856461   -1.05061507916743   -0.42920816384923
C          13.63275334508499   -0.01452616210210   -1.05596500899951
C          14.82986472014542    0.13014214355135   -1.20993971732742
C          16.19867084821917    0.29012423260144   -1.37771594532405
C          16.76145731193658    1.50137993159680   -1.60397693175056
C          18.12536547792248    1.69622478296386   -1.77041911533631
C          19.32039174207268    1.86261701726431   -1.91652768660732
C          20.67178089556592    2.10888517443421   -2.08329085907838
S          21.26120638245934    3.74361818146467   -2.24706916383701
C          22.89861397876560    3.16077387495833   -2.40163430526583
C          22.95197223239038    1.78299637437717   -2.32831988462509
C          21.70287588209649    1.19296550892558   -2.14791885550352
C          23.94836575597459    4.04595150919621   -2.57462016078483
C          24.83842563283146    4.85982881465780   -2.72429430103945
C          25.86737633250490    5.77535412769363   -2.89864487996098
C          27.15361827015315    5.41420371487161   -3.12033560796599
C          28.17205042817782    6.34051589880323   -3.30125010510990
C          29.07520496022928    7.13657507047435   -3.46803079730025
C          30.09156558716154    8.05515525922797   -3.66148123445565
S          29.80367973421682    9.76493431490358   -3.49585000046955
C          31.47052910712380   10.10494526914131   -3.89145924666509
C          32.17878916198670    8.94015579546625   -4.13173911927873
C          31.40709938229309    7.79180501983859   -4.00087621542333
C          31.94304530283445   11.39944106907260   -3.94054311813707
C          32.34518701060928   12.54847204505900   -3.98444520890389
C          32.83356472768503   13.83730125321506   -4.05622571030429
C          32.09154905447909   14.94152193973845   -3.76268184661226
C          32.63665482785387   16.23848665672363   -3.83801596371015
C          32.01254341268428   17.43557266407783   -3.62794166636730
C          32.83707568130111   18.64094804523173   -3.35251992953540
O          34.02974118273518   18.75854857154251   -3.52759128554520
C          31.90511413867968   19.62598730519871   -2.77043233107262
C          32.17412412827909   20.85614516997838   -2.24455535465088
C          31.11705495971034   21.61930795592089   -1.69996387552598
C          29.79609307273833   21.08444742621503   -1.70636941781551
C          28.74847947058737   21.84553699626485   -1.15230995783392
C          29.01970323614663   23.07752983040268   -0.62559870795406
C          30.31093363989092   23.62193415950243   -0.61230742830626
C          31.33981493975145   22.89587610981964   -1.14462666497893
F          28.01964554900350   23.80629639910763   -0.09579038436474
C          29.54565521549459   19.80946796982035   -2.26620493102100
C          30.58381604775605   19.09362156264524   -2.79751855618275
C          30.62252040613654   17.79193885623662   -3.46371507724001
C          29.53733272207096   17.15770857024801   -4.01308053585540
C          29.61859811526141   16.06893615093557   -4.90583250366219
N          29.62641847201107   15.22243019786903   -5.68130146123837
C          28.20725733998896   17.59324743319396   -3.84387641726818
N          27.10477716659733   17.88912078070598   -3.71964586826597
H           0.18285692756600   -2.79757875129761   -1.12010095430339
H          -2.84773595790028    0.00384003332427   -2.20451876859219
H          -1.21779575492990    1.86794469614339   -2.02634098278795
H           2.45431625802887   -2.03906716728826   -0.65283888614234
H           1.07852051617666    2.66560166460236   -1.56371680369415
H           6.24465589941318    2.98513679322801   -0.82350686723931
H          12.03064725947289   -2.21957892746395   -0.35728622936992
H           9.46224789368161   -1.79363759261017   -0.14769365513994
H          16.81232076686249   -0.59962692662752   -1.31555153509363
H          16.13893407051885    2.38629787658912   -1.65920757250763
H          23.87515976748556    1.23633610019490   -2.40377331669927
H          21.53922294601857    0.13297144970233   -2.06766697410659
H          25.59537577085343    6.82287978706547   -2.85606938235759
H          27.42843475667169    4.36786835824876   -3.16969305743027
H          33.22235331462070    8.94532769264685   -4.39168584204408
H          31.77468813550666    6.79186537580425   -4.14736700928800
H          33.86065491414664   13.94884506951830   -4.38448500854662
H          31.06981083728250   14.80981315956620   -3.43836306549611
H          33.70800167678869   16.31136457211910   -4.00099571597337
H          33.18223292894027   21.24288023305587   -2.24233511019206
H          27.74105480508082   21.45958029270816   -1.14864673818746
H          30.46445531684592   24.59941116662184   -0.18326135928890
H          32.34354324891058   23.29364991763263   -1.14586318325070
H          28.53707033563111   19.42784786146361   -2.25104994607448
