110
 SCF done       -207.120720980602          0.000566463892
C         -14.19652881551965    3.45857978531728    4.33987037862486
C         -14.08763104441533    4.69313225723504    4.96183017833404
C         -13.60046361089495    5.79928292864318    4.27939764900846
C         -13.21455030608872    5.70477617379282    2.95081543841155
C         -13.31810686495584    4.47669005513780    2.31866301421848
C         -13.80578095399776    3.34554526483026    3.01447785502993
C         -13.78611897070775    2.19430947724682    2.12237450769214
C         -14.28400755209202    0.94877367355377    2.39231908114995
C         -14.90139962665703    0.59156039176458    3.61059000173771
N         -15.40927983122631    0.23311775650026    4.57530610777412
C         -14.29055273283392   -0.14393265162210    1.49797279561853
N         -14.34083124070858   -1.07857903426390    0.83303459852792
C         -13.12118347989919    2.62936937958336    0.89873164533463
C         -13.02595015687436    4.08308282637500    0.95020069760868
C         -12.92029779090612    4.91118601254475   -0.13371469815618
C         -12.97779344271251    4.45788508732734   -1.47073888120084
N         -13.12594969347607    4.14731820468262   -2.56552331545136
C         -12.87034072246115    6.31780819538535   -0.04004725367355
N         -12.81246601589462    7.46312213418482   -0.00549425377712
C         -12.58073581749031    1.80132334861507   -0.03955154106562
C         -11.60422913769372    2.12841983628690   -1.00962608565315
C         -10.53215942936849    3.15231331507559   -0.94150147087985
N          -9.71931844395879    3.11614250142272   -1.94354747920816
C         -10.16907193391493    2.10984066972440   -2.76551378516090
C         -11.33070397516827    1.47318773555622   -2.18643921986102
C         -11.78477087043107    0.39485846387517   -3.05704283027324
S         -13.23512771315645   -0.49163581071157   -2.71606676459391
C         -10.91646889096986    0.36888715650364   -4.11424401982069
C          -9.88810939798285    1.45213350635779   -3.93980637696574
N          -9.03017740282652    1.46017648308670   -4.97434082291658
C          -9.42789872548251    0.51357606537588   -5.79726334395432
C         -10.58770037047441   -0.23332321552960   -5.36032496811517
C         -11.16979438540057   -1.27903246485977   -6.05876168627169
C         -10.86934548328161   -1.61281222487474   -7.44688239957519
N         -11.49388545015306   -2.66246738143270   -7.90436462488645
C         -12.24300317380320   -3.13813362786876   -6.88109000488841
C         -12.09555201344992   -2.27995484998012   -5.67403984738929
C         -12.73797967915816   -2.89008330984733   -4.61104763653869
S         -12.79200211604868   -2.50358836307094   -2.92130893775348
C         -13.26344845692859   -4.13925546915261   -5.10720288607868
C         -12.96977252343463   -4.24635021564033   -6.53103127419866
N         -13.32366922527274   -5.48327854198045   -7.00592083914781
C         -13.69035741338435   -6.16496070642680   -5.97176538081643
C         -13.65421433863020   -5.39993648297153   -4.70471238735629
C         -13.87118587478755   -5.96174607530328   -3.42394052579016
C         -13.30092408182470   -7.16270957125250   -3.09036881610285
C         -13.39111600776551   -7.92053566038325   -1.89379023631014
C         -12.51108866329431   -8.95958259215008   -1.82133324965493
C         -11.64250617061309   -9.04778066818827   -2.93310913534019
S         -12.07349285375238   -7.85586820423963   -4.13908536545023
C         -10.47785504025681   -9.76711926475841   -3.12081573274894
C          -9.86039736945497  -10.77690221624716   -2.34625643958872
C          -8.61976962494284  -11.12506561379338   -2.78355731601338
C          -8.15543853132763  -10.37965580116256   -3.90671923245581
S          -9.44009248638924   -9.30317984678222   -4.44760573431491
C          -6.93520495174257  -10.45231999723306   -4.51041934314365
C          -6.44958813023107   -9.55445044019589   -5.52526738116562
C          -5.49760199823118   -9.98591174976608   -6.46605755354294
C          -5.04287822645933   -9.17038979356337   -7.47961637584552
C          -5.51403488190744   -7.86067514931704   -7.56911641028749
C          -6.42524276629560   -7.41324980937762   -6.60070900908591
C          -6.88738303549554   -8.22529047743206   -5.59421198597427
S          -6.85850201140380   -5.74129943937654   -6.87365154074833
C          -5.84973870576003   -5.70719934576120   -8.30230023824271
C          -5.72283187263067   -4.60003839591477   -9.10866741564292
C          -6.29641470227672   -3.36856766090317   -8.79878432455440
C          -6.13672704250720   -2.16908327877494   -9.45457281154767
C          -5.24002860013635   -1.74263036303616  -10.49522392146613
C          -4.00686823202067   -2.25951990455583  -10.82352050669465
C          -3.34269902248094   -3.29408097414600  -10.14468250970587
N          -2.72631982901544   -4.11733934751810   -9.62746586924993
C          -3.18489999295387   -1.75417532559282  -11.85153607343205
N          -2.47046822861634   -1.42024605955855  -12.68669479355561
C          -5.77132081367518   -0.48696066435651  -11.03839238027263
C          -6.83555795724709   -0.05800609722314  -10.22535719525572
C          -7.07276913092793   -1.06411559479295   -9.17213631654467
O          -7.88861294034362   -1.00594238973710   -8.27096629048321
C          -7.50319960841224    1.12498040994078  -10.46943341573472
C          -7.10783216983169    1.88906730382577  -11.55950630191267
C          -6.07242709096937    1.46336627610731  -12.37675807691273
C          -5.39060763902134    0.27786810485769  -12.12747190717612
N          -5.20155712665591   -6.89107420539123   -8.48979826708071
C          -4.20463822681291   -7.04564034814507   -9.51986964879573
H         -14.57315583105095    2.60978253461558    4.88667743704180
H         -14.38430287229358    4.79122924280645    5.99485235240648
H         -13.51868654550594    6.74753587158406    4.78810629771789
H         -12.83245707865573    6.56865777605861    2.43128509144545
H         -12.85799999203087    0.75442087840871   -0.01546655169225
H         -10.36951997840491    3.82902446062867   -0.12164499772646
H          -8.87362516996615    0.31616893543840   -6.69883001890941
H         -10.19350827817347   -1.06604347441284   -8.07876945198495
H         -14.05713237043249   -7.17122439521652   -6.06865938954946
H         -14.40162347730540   -5.39487416636454   -2.67158199718654
H         -14.09549691551889   -7.66399658562030   -1.12233090036242
H         -12.42994992354546   -9.62892435414130   -0.98305662396731
H         -10.35019999887423  -11.21522040174088   -1.49477943545128
H          -7.99677011005092  -11.86573413560102   -2.31371906980467
H          -6.27622538659597  -11.25655066362006   -4.21073002367314
H          -5.13473985170012  -11.00101242297114   -6.40881598554459
H          -4.33573586513155   -9.55619419702829   -8.19653688793285
H          -7.54692243554442   -7.81369310948849   -4.85027468181623
H          -5.15204843222194   -4.69888968503027  -10.01546052380296
H          -6.99752838312994   -3.33986315483931   -7.96958776580993
H          -8.30876551207407    1.44036179562693   -9.82393930828080
H          -7.61191181239828    2.81921926232902  -11.77442488651005
H          -5.78426207219086    2.06347671377738  -13.22689407555442
H          -4.59275654687643   -0.02923848708939  -12.78377124814574
H          -3.54411048565690   -6.17304949977397   -9.53152318068753
H          -4.67378248142421   -7.15171257547918  -10.50043533927741
H          -3.60804133580349   -7.92965026910527   -9.31452812493444
