108
 SCF done       -187.653239489361          0.001222494060
C          -5.77275474561049   11.87499112820577    0.39770459379939
C          -6.16234465595692   11.59574983839629   -0.86189744637884
C          -5.43183359397663   10.41530813747893   -1.31088630416547
C          -5.56466789360491    9.88231332866337   -2.58924292375111
N          -5.71388930610664    9.46936501040640   -3.65525767417727
C          -4.63841483046132    9.97600997719193   -0.28162886181307
C          -4.83585610158465   10.85914377473677    0.83804787433138
C          -4.26117728784876   10.83416602036834    2.09695382475471
C          -3.52850638323390    9.74886206178525    2.79873602908981
C          -2.91038279438739   10.32108658070473    3.89111645465273
C          -3.28546160577480   11.69469768401422    3.96250742483529
C          -4.13695386203511   11.98868941247632    2.91161143409230
C          -2.85374358705547   12.59199083808382    4.94758323601748
N          -2.49665511139189   13.32371813695767    5.75746109253884
C          -3.56038260716089    8.35880476738504    2.57175804528322
C          -4.42824462568859    7.68834712796937    1.76137049532069
C          -4.41097745959130    6.29797770063760    1.50889646184472
C          -5.16133294184929    5.76774451480439    0.47350153398259
C          -5.14975930176255    4.44258604316094    0.07695874638555
C          -4.39118370481088    3.42599119673487    0.80700006023387
C          -3.59944285041342    3.70179470150874    1.86503156142850
S          -3.36039264187622    5.28341687095674    2.49406774316628
C          -4.64120704141234    2.20699094979182    0.11345154936415
C          -5.44378466658636    2.44678504413116   -1.00816989466844
C          -5.71511626815698    1.25501260053135   -1.72082512893085
C          -5.12320827344876    0.17831240753560   -1.14385196002304
S          -4.21359757617754    0.55497784277498    0.28176656236497
C          -5.75963779910468    3.84747949237640   -1.05872567312909
C          -6.42684292051562    4.58232297302475   -2.05616401415530
C          -6.70275834277841    4.15040792489344   -3.31753943821899
C          -7.22867940616979    4.98472283765223   -4.33614529560191
C          -7.56909820727409    6.31865941605348   -4.23122123057969
C          -7.87493830798236    6.80580918321012   -5.54372305816682
C          -8.06371467218255    8.10843773048879   -5.73949811153109
N          -8.35972449870667    9.26034096381773   -5.77862688240020
C          -7.74399546626454    5.69585370404969   -6.45327052060402
C          -7.34899054844289    4.59737283964088   -5.74073322440244
C          -7.08082859569734    3.25101111076514   -6.20777399574185
C          -6.27010165945347    2.81556522695142   -7.35687456712089
C          -6.37467136824367    1.39071862083878   -7.41840748575726
C          -7.14394540081555    0.96820084096058   -6.36480410967415
C          -7.58462069439712    2.12847277440336   -5.62242940044529
C          -7.45289789718209   -0.34888035083209   -6.01354393461976
N          -7.69993586768186   -1.42426319614909   -5.69151617668366
C          -5.50593012869590    3.56578227427647   -8.22164716161045
C          -5.28344239805274    4.93250638315467   -8.05421356674263
C          -4.95241582488204    5.86780577856296   -9.01289478350074
C          -5.16377267455128    7.22884653201210   -8.70121124106610
C          -5.22566189902542    8.23481463914173   -9.61261875785955
C          -4.88261583839161    8.04748292413264  -11.01700180611095
C          -4.51639918946489    6.85866741924172  -11.53955169444310
S          -4.48585356600634    5.38419060688400  -10.64205704340142
C          -5.08707868546614    9.32645810426350  -11.62288914971723
C          -5.60059716996810   10.23754434007693  -10.69594324227787
C          -5.84196982008953   11.50062276351084  -11.28340168441788
C          -5.51859062819533   11.51120456906035  -12.60269020720297
S          -4.91346325780888    9.99916431727426  -13.18765179112791
C          -5.72604326929636    9.58337238398854   -9.41727598189061
C          -6.33955382992208    9.97715429883774   -8.25279103810168
C          -7.09934033103205   11.13719862479367   -8.06652919790855
C          -7.83741594469792   11.39098792817446   -6.94060408012223
C          -7.77486099127435   10.55671460286310   -5.67706380386474
C          -8.58653183216996   11.38651419731692   -4.70386932115990
C          -8.81569447608532   10.95416617709780   -3.39496014496698
N          -8.98287156162914   10.58822291743908   -2.31926498517157
C          -9.02605853360039   12.51887903508371   -5.29448285321525
C          -8.63936615175630   12.55081856414659   -6.68384284122830
C          -9.05713087082532   13.50968156698207   -7.59471373439169
C          -9.53006399504872   14.86297275364423   -7.29138317943947
C          -9.94886739119748   15.42454693670358   -8.46044198497424
C          -9.78417264401359   14.45955644057957   -9.52341484780402
C          -9.21679743320679   13.32198976276968   -9.00280481414697
C         -10.14103047040280   14.66647983389560  -10.85860294911044
N         -10.41997476741300   14.83801277949936  -11.96066728219764
C          -9.41356167638630   15.53224908153707   -6.01347080195486
C         -10.18815065773510   16.53837272825844   -5.62125868992708
H          -6.14497843947533   12.66692337587596    1.01772128358976
H          -6.88062182415012   12.12056647763637   -1.46225639369951
H          -3.91924580994979    9.17969219665963   -0.33185609497707
H          -2.29992946768293    9.81453963821749    4.61501189312739
H          -4.53754458230205   12.95864085817744    2.68949424103895
H          -2.85457199786864    7.78029981604148    3.15749655473939
H          -5.19432751264918    8.24175022527088    1.23756714551452
H          -5.76580996429599    6.47132776717047   -0.08313649489014
H          -3.02796551209249    2.94623252881523    2.38015790501683
H          -6.32392168349633    1.17689244230180   -2.60260408198934
H          -5.16342603969482   -0.84276862859167   -1.46893881800420
H          -6.65858062888302    5.60904997018554   -1.81066262390854
H          -6.43186355466828    3.14593403331602   -3.60625550767553
H          -7.57162896483655    6.93878984880687   -3.35645424149948
H          -7.94928931391277    5.75213125909055   -7.50623126191682
H          -5.88675459264618    0.76924604152253   -8.14587398602047
H          -8.25504865695993    2.08468020288888   -4.78315257735495
H          -5.09339325910670    3.06948975018906   -9.09286007309296
H          -5.52107411268810    5.33767579144765   -7.08176713477889
H          -5.39952278112799    7.43163826280963   -7.66564152984582
H          -4.25967518674704    6.72802586777374  -12.57818795309992
H          -6.22063927290848   12.36805621760559  -10.77485573888204
H          -5.60015076191596   12.33041119301324  -13.28952577273500
H          -6.30174662184211    9.27808386653200   -7.42969478309775
H          -7.13379547889703   11.85689182712213   -8.86745978132105
H          -6.73885169757879   10.45778717217960   -5.31131107655895
H          -9.64510756711187   13.26204614731665   -4.82533719732186
H         -10.31215851928972   16.42384409051265   -8.60585993766367
H          -9.06019525258702   12.40545617947808   -9.53919733267435
H          -8.61680522928534   15.18717729846055   -5.36605423117845
H         -10.99825360818992   16.89922997986008   -6.23106455929231
H         -10.04628082868019   17.02612124400704   -4.67243258954955
