# ORCA input file
# SCF done       -211.372690924018          0.000554072250
! CAM-B3LYP def2-SVP def2/J RIJCOSX Grid4 TightSCF
%maxcore 5000
%tddft
    Mode sTDDFT
    Ethresh 5.0
    maxcore 5000
end

%pal
  nprocs 6
  end
* xyz 0 1
   C       -8.90019        10.32130         0.65327
   O       -8.49295         9.80372        -0.36510
   C       -9.66191        11.58968         0.75342
   C      -10.08109        11.78222         2.08290
   C      -10.87762        12.86419         2.41805
   C      -11.19849        13.76999         1.41853
   C      -10.71882        13.63879         0.11762
   C       -9.94353        12.52851        -0.21968
   F       -9.46751        12.41188        -1.45987
   F      -10.99264        14.57484        -0.79816
   F      -11.97023        14.82028         1.71427
   C       -9.46172        10.75511         2.91175
   C       -9.57552        10.65497         4.28183
   C      -10.44297        11.43902         5.06274
   N      -11.16316        12.01122         5.75161
   C       -8.85412         9.75572         5.08611
   N       -8.29712         9.06308         5.81549
   C       -8.70928         9.88536         2.04917
   C       -7.73343         8.99020         2.43392
   C       -7.11883         8.02718         1.60660
   C       -7.77810         7.33592         0.60297
   C       -7.20037         6.35972        -0.18940
   C       -5.77539         6.02772        -0.06266
   C       -4.95217         6.53947         0.88131
   S       -5.44248         7.69415         2.03646
   C       -5.53967         4.97905        -0.98664
   C       -6.75127         4.60904        -1.58717
   C       -6.59108         3.52411        -2.48023
   C       -5.29914         3.11101        -2.52903
   S       -4.22780         4.00713        -1.49755
   C       -7.79817         5.45264        -1.10507
   C       -9.17545         5.15133        -1.30715
   C      -10.28265         5.92331        -1.21798
   C      -10.42760         7.35119        -1.33143
   C      -11.37682         8.02385        -0.59693
   C      -11.70783         9.36623        -0.76842
   C      -11.32718        10.05456        -1.99967
   C      -10.33316         9.61570        -2.80866
   S       -9.47581         8.15604        -2.56000
   C      -12.12647        11.23471        -2.02840
   C      -12.85669        11.33980        -0.84048
   C      -13.63388        12.51693        -0.79611
   C      -13.49327        13.24813        -1.93444
   S      -12.40440        12.55775        -3.08723
   C      -12.54894        10.21186        -0.00020
   C      -12.86250        10.07603         1.36518
   C      -12.15367         9.23095         2.17223
   C      -12.25618         8.99128         3.55715
   C      -11.33604         8.12414         4.13282
   C      -11.24159         7.82802         5.47474
   C      -12.10199         8.46475         6.46558
   C      -13.09250         9.32762         6.13658
   S      -13.46772         9.79787         4.52574
   C      -11.62639         7.98980         7.72234
   C      -10.53735         7.13002         7.53927
   C      -10.05115         6.61986         8.76159
   C      -10.75858         7.10336         9.81678
   S      -12.03521         8.18639         9.37671
   C      -10.27319         7.01355         6.12865
   C       -9.27973         6.33024         5.43174
   C       -8.13183         5.73593         5.91173
   C       -7.24594         5.18485         4.99579
   C       -5.97191         4.65288         5.10606
   C       -5.23874         4.48838         3.84353
   O       -5.67711         4.62273         2.71552
   C       -3.84753         4.15595         4.22765
   C       -3.77358         4.04554         5.62711
   C       -5.11382         4.27857         6.19127
   C       -5.43391         4.03394         7.50727
   C       -4.50584         3.62601         8.48685
   N       -3.80973         3.29897         9.34018
   C       -6.71886         4.07065         8.07807
   N       -7.72235         4.04421         8.63804
   C       -2.56591         3.76150         6.23922
   C       -1.44591         3.59091         5.43576
   C       -1.50448         3.69950         4.04977
   C       -2.72588         3.98865         3.43981
   F       -2.78247         4.11489         2.11042
   F       -0.40228         3.53648         3.30873
   F       -0.26983         3.32166         6.01123
   H      -11.24086        13.03710         3.41751
   H       -7.33222         9.07904         3.43628
   H       -8.83416         7.53306         0.49407
   H       -3.92862         6.21627         0.98263
   H       -7.38232         3.07820        -3.05520
   H       -4.88896         2.31395        -3.11806
   H       -9.35075         4.09108        -1.46065
   H      -11.23197         5.40720        -1.11870
   H      -11.91013         7.44944         0.15016
   H       -9.97853        10.19006        -3.64916
   H      -14.26896        12.80629         0.02152
   H      -13.96329        14.18162        -2.17364
   H      -13.61837        10.72414         1.78757
   H      -11.34100         8.68727         1.71132
   H      -10.63115         7.66424         3.45263
   H      -13.72484         9.79877         6.87140
   H       -9.24306         5.91874         8.86574
   H      -10.61201         6.88793        10.85699
   H       -9.40277         6.30668         4.35429
   H       -7.91083         5.77405         6.96200
   H       -7.55715         5.24940         3.95426
   H       -2.45104         3.67329         7.30647
*
