# ORCA input file
# SCF done       -215.348280854535          0.000499955635
! CAM-B3LYP def2-SVP def2/J RIJCOSX Grid4 TightSCF
%maxcore 5000
%tddft
    Mode sTDDFT
    Ethresh 5.0
    maxcore 5000
end

%pal
  nprocs 6
  end
* xyz 0 1
   C       -3.24177         2.17792        -4.32935
   C       -2.72010         3.40087        -4.66983
   C       -1.59460         3.57785        -5.50000
   N       -0.69008         3.78768        -6.17541
   C       -3.21674         4.64219        -4.22217
   N       -3.55444         5.68675        -3.88409
   C       -2.69091         0.88165        -4.70355
   C       -3.45486        -0.13423        -4.07576
   C       -3.17671        -1.47064        -4.22927
   C       -2.08982        -1.82278        -5.03558
   C       -1.33544        -0.80193        -5.66178
   C       -1.61890         0.55047        -5.50981
   S       -0.04698        -1.46754        -6.61487
   C       -0.51659        -3.07251        -6.17312
   C       -1.58806        -3.11666        -5.35159
   C       -4.53900         0.47860        -3.28767
   O       -5.43157        -0.10574        -2.70833
   C       -4.37952         1.94269        -3.46574
   C       -5.29265         2.88174        -3.06449
   C       -6.28554         2.71602        -2.08279
   S       -7.73398         3.69359        -2.17860
   C       -8.42749         2.98832        -0.74813
   C       -7.54211         2.07151        -0.21054
   C       -6.32985         1.91679        -0.93729
   C       -5.43258         1.04986        -0.27300
   C       -5.97260         0.53158         0.86724
   C       -5.31930        -0.41256         1.77818
   O       -4.18574        -0.80544         1.66038
   O       -6.14784        -0.77980         2.76477
   C       -5.62464        -1.69743         3.71227
   S       -7.58989         1.08901         1.21432
   C       -9.70538         3.38051        -0.27819
   C      -10.54626         4.30112        -0.84346
   C      -11.74209         4.49594        -0.11890
   C      -12.82079         5.34841        -0.43684
   C      -12.87277         6.11154        -1.66617
   C      -13.36252         7.37292        -1.85365
   C      -13.31168         7.78428        -3.20268
   C      -12.80272         6.85228        -4.06020
   S      -12.35788         5.42687        -3.18617
   C      -12.60420         6.94594        -5.52807
  Cl      -13.85548         9.33702        -3.70882
   C      -13.85697         5.40240         0.48899
   C      -13.88586         4.62942         1.67791
   C      -12.83596         3.73216         1.96526
   C      -11.77792         3.71041         1.06187
   S      -10.35874         2.70757         1.19879
   C      -12.85740         2.84435         3.10890
   C      -11.80544         2.43374         3.87768
   C      -12.17982         1.49088         4.85876
   C      -13.50360         1.15965         4.85071
   S      -14.32396         2.04101         3.60793
   C      -14.23214         0.20687         5.72526
  Cl      -11.04344         0.81833         5.96196
   C      -15.03791         4.90035         2.45204
   C      -15.88769         5.80221         1.87710
   S      -15.29165         6.37739         0.33532
   C      -17.11183         6.30230         2.39799
   C      -18.00911         7.14669         1.78217
   C      -19.12957         7.45220         2.55986
   C      -20.21836         8.36878         2.12500
   C      -19.07772         6.86300         3.81751
   S      -17.64100         5.88416         3.99506
   C      -20.06443         6.94381         4.82942
   C      -19.92406         6.76983         6.17028
   C      -18.75315         6.75089         7.02178
   C      -17.60212         7.46660         6.81515
   C      -16.51691         7.48683         7.71245
   N      -15.60183         7.51504         8.40511
   C      -17.43399         8.34584         5.72585
   N      -17.30007         9.11558         4.88458
   C      -19.13432         6.09634         8.26653
   C      -20.54566         5.94389         8.28329
   C      -21.10589         6.43509         7.00977
   O      -22.26947         6.50887         6.68466
   C      -21.21224         5.40753         9.35858
   C      -20.45401         4.99413        10.45848
   C      -19.04587         5.13694        10.42339
   C      -18.36966         5.68758         9.34101
   S      -18.31806         4.55137        11.88577
   C      -19.87213         4.13567        12.52181
   C      -20.89307         4.41576        11.68312
   H       -3.77643        -2.21994        -3.73635
   H       -1.01791         1.29036        -6.01160
   H        0.04831        -3.89681        -6.56310
   H       -2.02043        -4.02543        -4.97380
   H       -5.29791         3.84199        -3.56607
   H       -4.43457         0.81663        -0.59049
   H       -6.40134        -1.83684         4.45943
   H       -4.71746        -1.29535         4.16799
   H       -5.38333        -2.64541         3.22687
   H      -10.29182         4.82708        -1.74519
   H      -13.71173         8.00988        -1.06277
   H      -13.02430         7.87893        -5.89508
   H      -13.08836         6.11265        -6.03551
   H      -11.54279         6.91691        -5.77418
   H      -10.80372         2.80915         3.78506
   H      -13.54713        -0.21422         6.45678
   H      -14.66213        -0.60289         5.13617
   H      -15.04538         0.70936         6.24775
   H      -15.23751         4.46039         3.41195
   H      -17.84947         7.52504         0.78772
   H      -20.14796         8.55691         1.05733
   H      -20.13386         9.31908         2.65152
   H      -21.19699         7.94797         2.35001
   H      -21.08462         7.09322         4.48709
   H      -22.28698         5.31255         9.35265
   H      -17.29562         5.77581         9.35334
   H      -19.92469         3.70003        13.50062
   H      -21.92685         4.22613        11.90868
*
