# ORCA input file
# SCF done       -213.683515822714          0.000518656253
! CAM-B3LYP def2-SVP def2/J RIJCOSX Grid4 TightSCF
%maxcore 5000
%tddft
    Mode sTDDFT
    Ethresh 5.0
    maxcore 5000
end

%pal
  nprocs 6
  end
* xyz 0 1
   C       15.32758        -3.33108         5.05354
   C       15.05894        -2.82944         6.29672
   F       16.03402        -2.80071         7.22443
   C       13.79603        -2.33747         6.65154
   C       12.79357        -2.35747         5.72155
   C       13.01526        -2.86279         4.42452
   C       14.30620        -3.36191         4.08471
   C       14.54950        -3.88682         2.79336
   C       13.53575        -3.90422         1.87562
   C       12.25182        -3.38621         2.21402
   C       11.98708        -2.88337         3.45445
   C       11.36148        -3.49130         1.04123
   O       10.18920        -3.19321         0.96551
   C       12.22508        -3.98806        -0.06046
   C       13.47883        -4.41411         0.50866
   C       14.32936        -5.35386        -0.02293
   C       14.04762        -6.05942        -1.20917
   N       13.81627        -6.68768        -2.14302
   C       15.51045        -5.78866         0.60667
   N       16.49448        -6.15902         1.06860
   C       11.77309        -3.92667        -1.34976
   C       12.50229        -3.93319        -2.56270
   C       11.88611        -4.24852        -3.75891
   C       12.52614        -4.33754        -4.98572
   C       13.97878        -4.14869        -5.09071
   C       14.76673        -3.73764        -4.07386
   S       14.18912        -3.42338        -2.49300
   C       14.31195        -4.48558        -6.43108
   C       13.15674        -4.85522        -7.12324
   C       13.42740        -5.19887        -8.46681
   C       14.75064        -5.08726        -8.75081
   S       15.71742        -4.56030        -7.41169
   C       12.02319        -4.73543        -6.24926
   C       10.69772        -4.98260        -6.66468
   C        9.55896        -4.52406        -6.07387
   C        8.24118        -4.83123        -6.49622
   C        7.14086        -4.21579        -5.92770
   C        5.81929        -4.46579        -6.26778
   C        5.47109        -5.46808        -7.27622
   C        6.37821        -6.19080        -7.96923
   S        8.07326        -6.04605        -7.75827
   C        4.05147        -5.46962        -7.33131
   C        3.53059        -4.53355        -6.43163
   C        2.11806        -4.49543        -6.48313
   C        1.62531        -5.38129        -7.38644
   S        2.83746        -6.29645        -8.21801
   C        4.62882        -3.88840        -5.75548
   C        4.60078        -2.85598        -4.80190
   C        3.49603        -2.31408        -4.21185
   C        3.52377        -1.22413        -3.30901
   C        2.36954        -0.75781        -2.70102
   C        2.29432         0.34003        -1.85810
   C        3.46911         1.15799        -1.56320
   C        4.71354         0.87631        -2.00892
   S        5.08065        -0.46123        -3.01442
   C        2.99009         2.23762        -0.76988
   C        1.61157         2.12354        -0.58082
   C        1.10662         3.18014         0.20971
   C        2.08701         4.04491         0.58141
   S        3.65851         3.61992        -0.00159
   C        1.15441         0.92328        -1.23817
   C       -0.12843         0.37284        -1.30347
   C       -1.30987         0.95713        -0.91385
   C       -2.56711         0.34598        -0.97007
   C       -2.97626        -0.83972        -1.55090
   C       -4.18623        -1.49960        -1.00786
   O       -5.00501        -1.02062        -0.25208
   C       -4.15316        -2.88089        -1.53661
   C       -4.96896        -3.93500        -1.25164
   C       -4.71137        -5.18889        -1.85378
   C       -3.60895        -5.32041        -2.74595
   C       -3.35099        -6.57385        -3.33270
   C       -4.16235        -7.63359        -3.03702
   C       -5.25240        -7.52458        -2.16497
   C       -5.51632        -6.31384        -1.58603
   F       -3.91442        -8.83360        -3.59837
   C       -2.78935        -4.20308        -3.03492
   C       -3.05861        -3.00281        -2.43848
   C       -2.41234        -1.69531        -2.55218
   C       -1.57504        -1.32802        -3.58695
   C       -1.21870         0.00585        -3.85828
   N       -0.92415         1.08034        -4.13773
   C       -0.97616        -2.22626        -4.47879
   N       -0.38055        -2.91301        -5.18512
   H       16.31115        -3.70557         4.81643
   H       13.64235        -1.95468         7.64798
   H       11.81194        -1.98367         5.97150
   H       15.53591        -4.25533         2.55978
   H       11.00451        -2.50640         3.69603
   H       10.70095        -3.78131        -1.44486
   H       10.84509        -4.53222        -3.69337
   H       15.82649        -3.57330        -4.18812
   H       12.69078        -5.51287        -9.18377
   H       15.24111        -5.28357        -9.68414
   H       10.59981        -5.55720        -7.57817
   H        9.62831        -3.83356        -5.24558
   H        7.34842        -3.48221        -5.15984
   H        6.09638        -6.91887        -8.71313
   H        1.47416        -3.85527        -5.91003
   H        0.59626        -5.55924        -7.62921
   H        5.56523        -2.45290        -4.51727
   H        2.51854        -2.71553        -4.43114
   H        1.46322        -1.29865        -2.93675
   H        5.57160         1.48325        -1.76731
   H        0.08092         3.31005         0.50070
   H        1.98719         4.93097         1.17738
   H       -0.16983        -0.64253        -1.67226
   H       -1.27854         1.94758        -0.48658
   H       -3.35003         0.81988        -0.38457
   H       -5.80042        -3.81871        -0.57281
   H       -2.52053        -6.69480        -4.01085
   H       -5.85792        -8.39500        -1.96836
   H       -6.35050        -6.20500        -0.90928
   H       -1.96041        -4.33249        -3.71314
*
