# ORCA input file
# SCF done       -287.534530262898          0.000312364199
! CAM-B3LYP def2-SVP def2/J RIJCOSX Grid4 TightSCF
%maxcore 5000
%tddft
    Mode sTDDFT
    Ethresh 5.0
    maxcore 5000
end

%pal
  nprocs 6
  end
* xyz 0 1
   C       -1.08851        -2.22239        -6.75504
   C        0.07825        -1.83674        -7.30954
   C        1.07401        -1.51125        -6.34191
   C        2.39887        -1.09480        -6.56384
   C        2.95448        -1.02926        -7.90171
   C        2.81750        -1.93577        -8.91294
   C        3.50360        -1.54905       -10.08474
   C        4.15852        -0.35630        -9.98768
   S        3.93914         0.31512        -8.40719
   C        4.96745         0.34897       -11.01377
  Cl        3.50328        -2.51795       -11.51010
   C        3.14669        -0.76120        -5.43877
   C        2.64028        -0.87169        -4.12146
   C        1.33937        -1.36465        -3.89348
   C        0.57695        -1.64234        -5.02267
   S       -1.06939        -2.21588        -5.02609
   C        0.86812        -1.58850        -2.54305
   C        1.58071        -2.10013        -1.49550
   C        0.82611        -2.16857        -0.30573
   C       -0.45632        -1.71833        -0.42302
   S       -0.75507        -1.19758        -2.04804
   C       -1.51659        -1.64491         0.61376
  Cl        1.49335        -2.77019         1.16646
   C        3.57746        -0.42840        -3.15995
   C        4.77882        -0.05422        -3.69343
   S        4.79489        -0.19850        -5.44047
   C        5.95875         0.41272        -3.02086
   C        6.11146         0.52567        -1.64191
   O        5.05878         0.18465        -0.82647
   C        5.25992        -0.95494        -0.00203
   C        7.30232         1.02855        -1.02930
   O        7.32292         1.16108         0.33799
   C        6.46002         2.15260         0.87889
   C        8.44865         1.34595        -1.75241
   C        8.32898         1.19072        -3.15702
   C        7.10510         0.76582        -3.77770
   N        7.31072         0.75335        -5.07843
   O        8.56936         1.14379        -5.26223
   N        9.19887         1.41251        -4.12074
   C        9.67483         1.84658        -1.19631
   C       10.00259         2.06369         0.11281
   C       11.29019         2.62022         0.29277
   C       11.90217         3.01336         1.50108
   C       11.16676         2.97661         2.74717
   C        9.85716         3.30787         2.94934
   C        9.45344         3.14066         4.29095
   C       10.43341         2.68730         5.12451
   S       11.90532         2.46214         4.23900
   C       10.36302         2.40463         6.58032
  Cl        7.84522         3.48159         4.81063
   C       13.21614         3.45823         1.41194
   C       13.91268         3.57302         0.18613
   C       13.27580         3.25271        -1.02521
   C       11.97649         2.76183        -0.93725
   S       10.97916         2.28484        -2.28146
   C       13.93932         3.44560        -2.29983
   C       14.69431         4.51007        -2.70007
   C       15.17997         4.36521        -4.01811
   C       14.81317         3.20230        -4.63020
   S       13.83211         2.25344        -3.56501
   C       15.14080         2.72485        -5.99735
  Cl       16.15409         5.56898        -4.77469
   C       15.24830         4.02658         0.38066
   C       15.55477         4.27090         1.67531
   S       14.20330         3.98007         2.74970
   C       16.78661         4.85956         2.20896
   C       17.97762         4.23478         2.51108
   O       18.23909         2.91218         2.38330
   C       17.21951         1.97618         2.11533
   C       19.11737         4.98719         2.99366
   O       20.31198         4.40283         3.25271
   C       20.43211         3.12772         3.85363
   C       19.10017         6.36697         3.15118
   C       17.88050         7.02127         2.83989
   C       16.74315         6.26163         2.39720
   N       15.75224         7.10730         2.19627
   O       16.23206         8.31344         2.49767
   N       17.50866         8.28390         2.88564
   C       20.22912         7.10798         3.63973
   C       20.29955         8.46179         3.79756
   C       21.52507         8.90848         4.34838
   C       21.90834        10.22876         4.65585
   C       21.01773        11.35763         4.47950
   C       21.32907        12.61168         4.03652
   C       20.21582        13.47877         4.03091
   C       19.05589        12.91456         4.47602
   S       19.33113        11.26332         4.91078
   C       17.70996        13.52767         4.60673
  Cl       20.32781        15.11351         3.50051
   C       23.19274        10.39599         5.16616
   C       24.07841         9.32119         5.41945
   C       23.68418         8.00182         5.13638
   C       22.41673         7.83345         4.58270
   S       21.70025         6.31003         4.13825
   C       24.51809         6.85074         5.42282
   C       24.65748         5.71346         4.68108
   C       25.49318         4.75722         5.29781
   C       25.99266         5.13577         6.50862
   S       25.42758         6.72405         6.90558
   C       26.89406         4.38959         7.42295
  Cl       25.83863         3.23584         4.56627
   C       25.31919         9.78110         5.95188
   C       25.35904        11.11825         6.11702
   S       23.90633        11.91807         5.63015
   H       -1.99125        -2.51395        -7.25521
   H        0.23626        -1.75775        -8.36908
   H        2.28708        -2.86548        -8.82077
   H        5.01253        -0.24820       -11.92113
   H        5.97969         0.51999       -10.64959
   H        4.52830         1.31786       -11.24971
   H        2.59019        -2.45817        -1.57310
   H       -1.13354        -2.02136         1.55913
   H       -2.38073        -2.23959         0.31968
   H       -1.84908        -0.61654         0.75103
   H        3.35362        -0.35011        -2.11453
   H        6.10795        -0.82739         0.67350
   H        5.41803        -1.84702        -0.61664
   H        4.34318        -1.06529         0.57448
   H        6.59803         2.10431         1.95755
   H        5.41355         1.96495         0.63191
   H        6.74492         3.14487         0.51467
   H        9.35715         1.79795         0.92641
   H        9.21190         3.70138         2.18660
   H        9.35014         2.57099         6.93865
   H       11.04307         3.05546         7.12934
   H       10.64734         1.37334         6.78586
   H       14.86329         5.38696        -2.10257
   H       15.75915         3.46068        -6.50535
   H       14.23007         2.56725        -6.57402
   H       15.67840         1.77814        -5.95535
   H       15.95406         4.14855        -0.42094
   H       16.38545         2.07831         2.81253
   H       17.68874         1.00213         2.25350
   H       16.85402         2.05948         1.08975
   H       21.40323         3.14347         4.34968
   H       20.41623         2.33365         3.10555
   H       19.64918         2.95293         4.59327
   H       19.48920         9.10582         3.51471
   H       22.30170        12.90638         3.68942
   H       17.69771        14.49575         4.11192
   H       17.45177        13.66844         5.65665
   H       16.95398        12.88541         4.15819
   H       24.21209         5.56536         3.71547
   H       26.44018         4.28308         8.40754
   H       27.83975         4.91727         7.54541
   H       27.09261         3.40163         7.01486
   H       26.14257         9.13370         6.18917
   H       26.16920        11.71126         6.49391
*
