# ORCA input file
# SCF done       -297.173985114268          0.000198319791
! CAM-B3LYP def2-SVP def2/J RIJCOSX Grid4 TightSCF
%maxcore 5000
%tddft
    Mode sTDDFT
    Ethresh 5.0
    maxcore 5000
end

%pal
  nprocs 6
  end
* xyz 0 1
   C       11.29469       -14.36496        -3.61176
   C       11.40922       -14.23421        -4.94855
   C       11.21978       -12.89312        -5.39456
   C       11.25744       -12.39645        -6.71003
   C       11.45750       -13.24970        -7.86603
   C       12.21474       -12.99336        -8.97187
   C       12.14294       -14.02430        -9.93420
   C       11.33160       -15.06486        -9.59014
   S       10.63691       -14.77902        -8.02975
   C       11.02067       -16.29847       -10.35585
  Cl       13.01756       -13.95701       -11.41646
   C       11.08404       -11.02443        -6.86150
   C       10.85185       -10.14422        -5.77719
   C       10.76909       -10.64896        -4.46604
   C       10.98312       -12.01523        -4.31061
   S       10.95651       -12.87858        -2.79714
   C       10.44870        -9.77805        -3.35289
   C        9.50645        -8.79094        -3.30984
   C        9.46059        -8.13720        -2.05954
   C       10.35926        -8.60304        -1.14517
   S       11.28757        -9.89399        -1.83053
   C       10.57845        -8.15720         0.25413
  Cl        8.35544        -6.85616        -1.73233
   C       10.74020        -8.79714        -6.20411
   C       10.83180        -8.63982        -7.55527
   S       11.08320       -10.16730        -8.37963
   C       10.75729        -7.43206        -8.30393
   S       10.67961        -5.88679        -7.50369
   C       10.61739        -5.05561        -9.03278
   C       10.64990        -5.94903       -10.08033
   C       10.73381        -7.28070        -9.67104
   C       10.55640        -3.63772        -9.09266
   C       10.65162        -2.73183        -8.05981
   C       10.57423        -1.40278        -8.47747
   C       10.40768        -1.26417        -9.83782
   S       10.35368        -2.82124       -10.61813
   C       10.28459        -0.07106       -10.59697
   S       10.51023         1.49140        -9.86269
   C       10.19727         2.29817       -11.37728
   C        9.93247         1.37694       -12.37039
   C        9.98798         0.05370       -11.93743
   C       10.23223         3.70950       -11.51479
   C       10.59912         4.58052       -10.54857
   C       10.63680         5.99042       -10.71597
   C       11.09893         6.92848        -9.81936
   C       11.03669         8.25353       -10.27849
   C       11.52906         9.37368        -9.46265
   C       12.52627        10.20890        -9.93548
   C       12.98886        11.26515        -9.14797
   C       12.46432        11.45344        -7.88007
   C       11.47043        10.60025        -7.39738
   C       11.00121         9.56038        -8.18611
   O       11.03340        10.88142        -6.13928
   C       10.02541        10.07523        -5.58089
   O       13.94361        12.04932        -9.71479
   C       14.44534        13.13436        -8.97117
   C       10.48334         8.34357       -11.54829
   S       10.07923         6.76799       -12.16897
   C       10.15775         9.49239       -12.32653
   C       10.28171        10.81319       -12.00441
   C        9.83964        11.69518       -13.01676
   C        9.90670        13.10214       -13.01362
   C       10.41854        13.82032       -11.86299
   C       10.16968        13.58897       -10.54097
   C       10.86629        14.47709        -9.69316
   C       11.65092        15.38264       -10.34509
   S       11.53008        15.14725       -12.05547
   C       12.50700        16.45645        -9.77873
  Cl       10.71844        14.40840        -7.97645
   C        9.47940        13.74400       -14.16898
   C        8.97915        13.05764       -15.30363
   C        8.91842        11.64902       -15.30898
   C        9.35183        11.00616       -14.15354
   S        9.44953         9.28296       -13.92060
   C        8.45310        10.88889       -16.45087
   C        7.72560         9.73305       -16.44338
   C        7.49331         9.22487       -17.73937
   C        8.04163         9.96529       -18.74511
   S        8.86422        11.33766       -18.08510
   C        8.00314         9.72378       -20.20962
  Cl        6.58759         7.78576       -18.01162
   C        8.55791        13.95661       -16.31360
   C        8.73323        15.26866       -15.98901
   S        9.43364        15.47031       -14.39702
   C        8.42627        16.41060       -16.78412
   C        8.56445        17.72216       -16.44242
   C        8.17908        18.62134       -17.46814
   C        8.21006        20.02847       -17.44553
   C        8.76166        20.73960       -16.30988
   C        9.88721        20.43516       -15.59934
   C       10.12207        21.33797       -14.53989
   C        9.19167        22.32874       -14.42436
   S        7.98889        22.15896       -15.65870
   C        9.12300        23.43189       -13.43292
  Cl       11.47744        21.18280       -13.48765
   C        7.69753        20.67952       -18.56378
   C        7.21762        19.99597       -19.70537
   C        7.24259        18.59033       -19.75152
   C        7.70030        17.93801       -18.61243
   S        7.79787        16.21028       -18.40673
   C        6.82442        17.87150       -20.93990
   C        7.12203        18.16043       -22.23981
   C        6.54590        17.24357       -23.14652
   C        5.80671        16.25878       -22.56032
   S        5.82117        16.45119       -20.83894
   C        5.06071        15.14639       -23.20151
  Cl        6.77128        17.37337       -24.85023
   C        6.73282        20.90256       -20.69375
   C        6.86838        22.19444       -20.33307
   S        7.58631        22.40612       -18.77443
   H       11.39396       -15.25826        -3.02688
   H       11.62975       -15.05483        -5.60528
   H       12.83117       -12.12225        -9.09232
   H       11.60799       -16.31814       -11.27052
   H        9.96271       -16.33317       -10.61544
   H       11.25028       -17.18520        -9.76631
   H        8.83771        -8.56148        -4.11868
   H       10.06511        -7.21377         0.42401
   H       11.64073        -8.02928         0.45399
   H       10.19082        -8.89653         0.95569
   H       10.61628        -7.96556        -5.53459
   H       10.62005        -5.63298       -11.10801
   H       10.77397        -8.11895       -10.34397
   H       10.77891        -3.03765        -7.03635
   H       10.63225        -0.55667        -7.81588
   H        9.71148         1.66750       -13.38199
   H        9.81366        -0.79970       -12.56893
   H        9.95224         4.09042       -12.48939
   H       10.90278         4.20794        -9.57834
   H       11.50157         6.66380        -8.85736
   H       12.95579        10.06274       -10.91351
   H       12.79215        12.24695        -7.23044
   H       10.22482         8.89612        -7.84230
   H        9.83840        10.48270        -4.58859
   H       10.34849         9.03318        -5.48871
   H        9.10285        10.11891        -6.16882
   H       15.15946        13.63259        -9.62498
   H       14.95817        12.79548        -8.06543
   H       13.65037        13.83409        -8.69883
   H       10.70275        11.15027       -11.07868
   H        9.48552        12.84546       -10.17605
   H       12.43181        16.45415        -8.69394
   H       12.19181        17.43022       -10.15199
   H       13.54829        16.31076       -10.06470
   H        7.33489         9.27076       -15.55630
   H        8.99551         9.47044       -20.58318
   H        7.66417        10.61465       -20.73619
   H        7.32694         8.90061       -20.42698
   H        8.12438        13.65592       -17.24961
   H        8.90765        18.03013       -15.47172
   H       10.55189        19.62640       -15.84039
   H        9.98446        23.38443       -12.77139
   H        8.21443        23.35570       -12.83619
   H        9.11347        24.39819       -13.93562
   H        7.76053        18.96860       -22.54534
   H        3.99180        15.24151       -23.01177
   H        5.38744        14.18682       -22.80314
   H        5.23000        15.16193       -24.27530
   H        6.28424        20.58617       -21.61709
   H        6.58257        23.06692       -20.88733
*
