# ORCA input file
# SCF done       -199.994894777101          0.000927478257
! CAM-B3LYP def2-SVP def2/J RIJCOSX Grid4 TightSCF
%maxcore 5000
%tddft
    Mode sTDDFT
    Ethresh 5.0
    maxcore 5000
end

%pal
  nprocs 6
  end
* xyz 0 1
   C        1.29102        -4.12983        -3.14910
   C        0.39967        -4.68941        -4.00860
   S        1.21278        -5.46464        -5.32129
   C        2.79165        -5.03363        -4.71112
   C        4.03739        -5.41495        -5.41312
   C        2.65099        -4.32933        -3.55556
   C        3.54094        -3.69924        -2.58316
   O        4.76264        -3.67834        -2.60371
   C        2.65909        -3.09455        -1.57277
   C        1.27565        -3.37258        -1.91245
   C        0.13559        -3.02544        -1.23207
   C       -1.13766        -3.39281        -1.71272
   N       -2.18119        -3.68087        -2.09435
   C        0.07908        -2.30406        -0.02522
   N       -0.03031        -1.72815         0.96324
   C        3.07472        -2.36432        -0.48464
   C        4.36259        -2.03453        -0.05947
   S        5.87557        -2.49018        -0.80159
   C        6.82730        -1.66353         0.39781
   C        5.99849        -1.05450         1.32597
   C        4.61696        -1.25875         1.08812
   C        3.80326        -0.64572         2.06479
   C        4.54470        -0.00039         3.01317
   C        4.03605         0.73620         4.17200
   O        2.87065         0.88035         4.43959
   O        5.04640         1.23232         4.90416
   C        4.67409         1.96514         6.06071
   S        6.26498        -0.10693         2.75814
   C        8.26423        -1.69224         0.33023
   C        8.89244        -2.53748        -0.60018
   C       10.26130        -2.58154        -0.65591
   C       11.04020        -1.78374         0.20255
   C       10.42963        -0.93740         1.11753
   C        9.05158        -0.89891         1.17686
   C       12.43595        -2.04393        -0.07124
   C       12.51899        -3.00311        -1.09675
   C       11.14117        -3.42144        -1.55055
   C       10.90970        -3.09281        -3.03717
   C       11.11949        -1.61776        -3.35699
   C       10.90498        -4.92497        -1.31175
   C       11.11844        -5.33513         0.14041
   C       13.73937        -3.44092        -1.54439
   C       14.91477        -2.92975        -0.97270
   C       14.81745        -1.96911         0.04497
   C       13.59152        -1.52551         0.49606
   C       16.20064        -3.39801        -1.42518
   C       17.45214        -3.05514        -0.95253
   C       18.47714        -3.72093        -1.62716
   C       18.00235        -4.58136        -2.62861
   S       16.29939        -4.56648        -2.73394
   C       19.11107        -5.20527        -3.25175
   C       20.29134        -4.74442        -2.63477
   C       19.93007        -3.79398        -1.59592
   C       20.77157        -3.11634        -0.76385
   C       20.29362        -2.21377         0.20948
   N       19.90248        -1.48441         1.00318
   C       22.17250        -3.27781        -0.81337
   N       23.31048        -3.41306        -0.84158
   C       21.43794        -5.31999        -3.17001
   C       21.15603        -6.18430        -4.21746
   S       19.41902        -6.32160        -4.49655
   C       22.10578        -6.96140        -4.91831
   C       22.00085        -7.60661        -6.11196
   C       22.93472        -8.73895        -6.40494
   O       23.93485        -9.02571        -5.78679
   C       22.32598        -9.43015        -7.54335
   C       22.58062       -10.55889        -8.25958
   S       21.37568       -10.73498        -9.51177
   C       20.56394        -9.27980        -9.05652
   C       21.17759        -8.69683        -7.99403
   C       21.04940        -7.49111        -7.20035
   C       20.35953        -6.37253        -7.59316
   C       19.52509        -6.38694        -8.72790
   N       18.82705        -6.39770        -9.63888
   C       20.48785        -5.11207        -6.98098
   N       20.60526        -4.06282        -6.52902
   C       23.67917       -11.53416        -8.08340
   H       -0.67114        -4.70614        -3.97383
   H        4.08895        -6.49488        -5.54750
   H        4.89221        -5.08161        -4.82899
   H        4.07729        -4.95479        -6.40032
   H        2.29856        -1.96759         0.15765
   H        2.72850        -0.66804         2.09147
   H        5.60130         2.29298         6.52310
   H        4.10597         1.33036         6.74380
   H        4.05706         2.82219         5.78324
   H        8.28811        -3.14911        -1.25347
   H       11.01967        -0.31814         1.77562
   H        8.57061        -0.24015         1.88239
   H        9.88985        -3.37894        -3.30121
   H       11.59351        -3.69535        -3.63859
   H       10.43045        -0.99874        -2.78684
   H       10.94723        -1.43802        -4.41540
   H       12.13537        -1.31117        -3.11729
   H       11.58433        -5.49113        -1.95228
   H        9.88331        -5.16742        -1.61010
   H       12.13778        -5.12320         0.45591
   H       10.93724        -6.40090         0.25738
   H       10.43790        -4.79700         0.79644
   H       13.80715        -4.17991        -2.33026
   H       15.71521        -1.56659         0.48571
   H       13.53706        -0.78683         1.28098
   H       17.61634        -2.35712        -0.15321
   H       22.44289        -5.11288        -2.84899
   H       23.03698        -7.13601        -4.38613
   H       19.69222        -8.97125        -9.59811
   H       24.29433       -11.23070        -7.23929
   H       24.29831       -11.58083        -8.97892
   H       23.28276       -12.53258        -7.90098
*
