# ORCA input file
# SCF done       -173.089317071495          0.000869178704
! CAM-B3LYP def2-SVP def2/J RIJCOSX Grid4 TightSCF
%maxcore 5000
%tddft
    Mode sTDDFT
    Ethresh 5.0
    maxcore 5000
end

%pal
  nprocs 6
  end
* xyz 0 1
   C        2.69331        -0.43520        -0.32908
   C        1.99311         0.70100        -0.07589
   S        1.27851         1.31727        -1.52519
   C        1.92155         0.01792        -2.49946
   C        1.69451        -0.05181        -3.96002
   C        2.63926        -0.82372        -1.70634
   C        3.39840        -2.05682        -1.89962
   O        3.46103        -2.70599        -2.93030
   C        4.05632        -2.31795        -0.59438
   C        3.52453        -1.38162         0.38500
   C        3.70633        -1.38755         1.74452
   C        3.10462        -0.40750         2.55954
   N        2.62159         0.38810         3.23088
   C        4.43897        -2.34428         2.47264
   N        5.00381        -3.10347         3.12396
   C        5.14920        -3.10911        -0.33348
   C        5.81140        -4.07110        -1.12786
   C        5.27164        -4.75572        -2.20078
   C        5.94913        -5.66866        -2.99181
   C        7.32826        -6.06559        -2.67532
   C        8.04399        -5.57062        -1.63897
   S        7.45778        -4.38093        -0.55995
   C        7.67277        -7.05596        -3.63235
   C        6.59297        -7.27285        -4.49248
   C        6.88053        -8.25071        -5.47162
   C        8.13885        -8.74021        -5.33031
   S        9.02581        -8.04078        -4.01458
   C        5.50727        -6.40830        -4.12264
   C        4.28519        -6.39381        -4.82324
   C        3.25740        -5.50283        -4.70687
   C        2.03566        -5.62261        -5.38779
   S        1.69881        -6.86335        -6.56873
   C        0.05526        -6.32296        -6.81537
   C       -0.20199        -5.23020        -6.00736
   C        0.89862        -4.82807        -5.20310
   C        0.56943        -3.75752        -4.34313
   C       -0.72792        -3.36374        -4.49272
   C       -1.48066        -2.35166        -3.75522
   O       -2.59721        -1.99519        -4.03951
   O       -0.79136        -1.88008        -2.69876
   C       -1.48076        -0.93837        -1.88844
   S       -1.60862        -4.26296        -5.71464
   C       -0.81315        -6.99955        -7.70469
   S       -0.29302        -8.44982        -8.53139
   C       -1.83553        -8.65579        -9.31974
   C       -2.68511        -7.60948        -8.93683
   C       -2.10661        -6.69318        -8.03360
   N       -4.00763        -7.41946        -9.36678
   O       -4.48186        -8.21337       -10.17443
   O       -4.62469        -6.47304        -8.92163
   C       -1.99037        -9.78813       -10.15268
   C       -0.98131       -10.73179       -10.34659
   C       -1.37616       -11.76195       -11.18337
   C       -2.69962       -11.60624       -11.63791
   S       -3.45232       -10.20013       -11.04190
   C       -3.00333       -12.71596       -12.47619
   C       -1.88418       -13.55715       -12.54625
   C       -0.82154       -12.99016       -11.73953
   C        0.43096       -13.49213       -11.53562
   C        1.37651       -12.83683       -10.71992
   N        2.14811       -12.30665       -10.05724
   C        0.86343       -14.69842       -12.12489
   N        1.22037       -15.67873       -12.60082
   C       -2.10854       -14.68504       -13.35795
   C       -3.36805       -14.67682       -13.87694
   S       -4.31279       -13.30638       -13.39765
   H        1.85176         1.23036         0.84495
   H        1.99042         0.88052        -4.43943
   H        0.64123        -0.21998        -4.18026
   H        2.27461        -0.87249        -4.37560
   H        5.64317        -2.91905         0.61392
   H        4.23325        -4.56277        -2.40213
   H        9.05057        -5.89570        -1.42670
   H        6.20034        -8.57777        -6.23671
   H        8.62343        -9.48797        -5.92710
   H        4.16184        -7.19537        -5.54416
   H        3.33878        -4.62919        -4.08152
   H        1.25191        -3.30185        -3.64994
   H       -0.93929        -0.88809        -0.94740
   H       -2.50932        -1.26335        -1.72385
   H       -1.49603         0.04138        -2.37077
   H       -2.64677        -5.84510        -7.65484
   H       -0.01406       -10.64913        -9.88328
   H       -1.38767       -15.45859       -13.54988
   H       -3.81356       -15.40465       -14.52536
*
