# ORCA input file
# SCF done       -191.257739112739          0.000609428634
! CAM-B3LYP def2-SVP def2/J RIJCOSX Grid4 TightSCF
%maxcore 5000
%tddft
    Mode sTDDFT
    Ethresh 5.0
    maxcore 5000
end

%pal
  nprocs 6
  end
* xyz 0 1
   C       -9.10308        -6.38460        -1.21620
   O       -8.02346        -6.95276        -1.21451
   C      -10.35909        -6.88940        -1.80870
   C      -11.37227        -5.93016        -1.63039
   C      -12.65041        -6.19300        -2.09867
   C      -12.89504        -7.40337        -2.73240
   C      -11.87884        -8.33372        -2.89722
   C      -10.58963        -8.09347        -2.43890
  Br      -12.26169        -9.97916        -3.76664
   C      -10.80930        -4.77833        -0.92355
   C      -11.49478        -3.62975        -0.61030
   C      -12.85101        -3.40909        -0.92652
   N      -13.95055        -3.16960        -1.15442
   C      -10.95430        -2.50942         0.05292
   N      -10.58347        -1.55997         0.58367
   C       -9.42568        -5.08111        -0.64226
   C       -8.55570        -4.30077         0.09194
   C       -7.23341        -4.53546         0.45163
   S       -6.22372        -5.89062         0.02877
   C       -4.86920        -5.31025         0.99382
   C       -5.20599        -4.08988         1.60318
   C       -6.50856        -3.64811         1.28258
   C       -6.81696        -2.39229         1.84130
   C       -5.77092        -1.88730         2.56178
   C       -5.72541        -0.60454         3.27523
   O       -4.85322        -0.27902         4.04783
   O       -6.76891         0.15713         2.94888
   C       -6.85188         1.44129         3.55661
   S       -4.38193        -2.93333         2.59452
   C       -3.73707        -6.12755         0.98769
   C       -2.63728        -6.13158         1.82327
   C       -1.52885        -7.00673         1.72760
   C       -0.61091        -6.86778         2.73265
   C       -0.96216        -5.88343         3.67227
   S       -2.47182        -5.12252         3.23173
   C       -0.35029        -5.46103         4.84778
   C        0.82705        -5.85454         5.50682
   C        1.04288        -5.18697         6.68378
   C        0.04556        -4.24022         7.01433
   S       -1.16629        -4.22129         5.75692
   C       -0.00104        -3.43337         8.13697
   C       -1.01165        -2.52168         8.45484
   C       -2.20791        -2.25539         7.77615
   C       -2.94925        -1.26401         8.37638
   C       -2.35233        -0.73196         9.54440
   S       -0.85649        -1.49799         9.88966
   C       -3.18716         0.28362        10.03413
   C       -4.30605         0.41960         9.16594
   C       -4.20009        -0.56801         8.11455
   C       -5.08895        -0.85070         7.11695
   C       -4.94255        -1.96372         6.26234
   N       -4.87500        -2.91529         5.62477
   C       -6.25315        -0.08814         6.90492
   N       -7.20112         0.52815         6.71055
   C       -5.19696         1.39135         9.58938
   C       -4.78822         2.02434        10.76041
   S       -3.26294         1.35568        11.35694
   C       -5.55842         2.96445        11.46493
   C       -5.28103         3.68200        12.59446
   C       -6.41145         4.16392        13.42855
   O       -7.57601         4.23443        13.11302
   C       -5.80638         4.47258        14.74568
   C       -4.40944         4.32264        14.66764
   C       -4.05398         3.98845        13.28935
   C       -2.83045         4.21290        12.71113
   C       -1.67736         4.57745        13.43273
   N       -0.70879         4.85109        13.98477
   C       -2.63630         4.21128        11.31460
   N       -2.46427         4.27472        10.18134
   C       -3.62973         4.52495        15.79543
   C       -4.25544         4.87751        16.98219
   C       -5.63417         5.03426        17.03482
   C       -6.43574         4.83396        15.91839
  Br       -6.44482         5.52550        18.68149
   H      -13.45550        -5.48686        -1.98038
   H      -13.88564        -7.62435        -3.09912
   H       -9.79638        -8.81405        -2.56356
   H       -8.94924        -3.37278         0.48395
   H       -7.74861        -1.86906         1.72511
   H       -7.24053         1.35022         4.57344
   H       -7.53401         2.02161         2.94063
   H       -5.86511         1.90729         3.59074
   H       -3.75750        -6.91446         0.24266
   H       -1.44177        -7.71412         0.92200
   H        0.29043        -7.44792         2.81787
   H        1.48256        -6.60917         5.11040
   H        1.89022        -5.35536         7.32492
   H        0.82765        -3.51008         8.82827
   H       -2.52848        -2.76463         6.89032
   H       -6.10676         1.65722         9.08142
   H       -6.58589         3.05073        11.12193
   H       -2.55882         4.40342        15.77095
   H       -3.66727         5.03303        17.87353
   H       -7.50736         4.95351        15.95702
*
