# ORCA input file
# SCF done       -158.708767411729          0.000955568151
! CAM-B3LYP def2-SVP def2/J RIJCOSX Grid4 TightSCF
%maxcore 5000
%tddft
    Mode sTDDFT
    Ethresh 5.0
    maxcore 5000
end

%pal
  nprocs 6
  end
* xyz 0 1
   C        4.21776         1.37145        -1.11662
   C        3.47907         2.36455        -1.65568
   C        2.83198         2.27325        -2.90709
   C        3.03766         1.07865        -3.74577
   C        3.72470        -0.02122        -3.37123
   S        4.49442        -0.18369        -1.84283
   C        2.36852         1.35966        -4.96886
   C        1.79002         2.62372        -4.90243
   C        1.10016         2.95751        -6.08851
   C        1.17608         1.95988        -7.00793
   S        2.07399         0.57855        -6.47439
   C        2.05343         3.19737        -3.60330
   C        1.54510         4.46941        -3.21050
   C        1.32949         4.89434        -1.94366
   C        0.82392         6.17468        -1.58802
   N        0.52390         6.46475        -0.27019
   C        0.06665         7.74319        -0.19762
   C       -0.40245         8.72273         0.67197
   C       -0.65883         9.85111        -0.11558
   N       -0.35312         9.56194        -1.43296
   C        0.08976         8.27973        -1.50728
   C        0.56115         7.29786        -2.37657
   C       -1.13396        11.13420         0.25130
   C       -1.48420        11.50709         1.50775
   C       -1.93553        12.79905         1.89532
   C       -2.28380        13.08137         3.19531
   C       -2.72972        14.31439         3.67580
   C       -2.94597        15.43314         2.74263
   C       -2.66382        15.39387         1.42476
   S       -2.00934        14.02268         0.62470
   C       -3.49545        16.48305         3.52728
   C       -3.61351        16.06215         4.84869
   C       -4.14992        17.06954         5.68143
   C       -4.42223        18.20306         4.98420
   S       -4.03795        18.10015         3.29760
   C       -3.11959        14.71181         4.96677
   C       -3.09297        14.03269         6.21199
   C       -2.39304        12.91847         6.54430
   C       -2.44552        12.28394         7.81322
   N       -1.66223        11.17507         8.07538
   C       -1.91333        10.75129         9.34321
   C       -1.58652         9.79038        10.29458
   C       -2.36062        10.08161        11.42382
   N       -3.13775        11.19636        11.16335
   C       -2.88382        11.61999         9.89803
   C       -3.21670        12.57690         8.94275
   C       -2.43748         9.42773        12.67912
   C       -1.74416         8.31192        13.01487
   C       -1.79981         7.62027        14.26188
   C       -2.51059         8.00796        15.36808
   C       -2.56184         7.31582        16.58391
   C       -1.74315         6.10589        16.79545
   C       -0.97226         5.53477        15.84646
   S       -0.82973         6.14377        14.25037
   C       -1.95790         5.73848        18.14917
   C       -2.84196         6.64117        18.74069
   C       -3.10357         6.32032        20.09236
   C       -2.42627         5.21055        20.48370
   S       -1.44709         4.50676        19.23842
   C       -3.24010         7.61934        17.76634
   C       -4.17404         8.67413        18.05929
   C       -4.96812         9.30800        17.19767
   H        4.71364         1.46840        -0.16605
   H        3.41367         3.29348        -1.10785
   H        3.83348        -0.88287        -4.01069
   H        0.57571         3.88052        -6.25896
   H        0.74992         1.93778        -7.99173
   H        1.26089         5.12213        -4.02521
   H        1.50745         4.21851        -1.11788
   H        0.60897         5.81134         0.48904
   H       -0.54401         8.65044         1.73118
   H       -0.45394        10.21100        -2.19383
   H        0.70936         7.37142        -3.43473
   H       -1.21183        11.85934        -0.54973
   H       -1.42093        10.78102         2.30600
   H       -2.22872        12.25247         3.88598
   H       -2.82620        16.23597         0.77050
   H       -4.32669        16.96926         6.73731
   H       -4.83385        19.12167         5.35492
   H       -3.68473        14.49908         6.98879
   H       -1.71766        12.47104         5.82874
   H       -1.01354        10.77057         7.42323
   H       -0.88703         8.98434        10.20425
   H       -3.78575        11.60251        11.81575
   H       -3.92111        13.37846         9.03307
   H       -3.11359         9.87521        13.39596
   H       -1.08739         7.87456        12.27607
   H       -3.05090         8.94000        15.30348
   H       -0.39087         4.64444        16.02721
   H       -3.75620         6.87491        20.74285
   H       -2.43362         4.74035        21.44798
   H       -4.24021         8.92991        19.11104
   H       -5.00677         9.05524        16.15263
   H       -5.63796        10.08499        17.52472
*
