# ORCA input file
# SCF done       -186.953384036029          0.000800391588
! CAM-B3LYP def2-SVP def2/J RIJCOSX Grid4 TightSCF
%maxcore 5000
%tddft
    Mode sTDDFT
    Ethresh 5.0
    maxcore 5000
end

%pal
  nprocs 6
  end
* xyz 0 1
   C        1.47437        -4.72067        -0.71400
   C        1.69282        -3.56549         0.03062
   C        0.60469        -2.83922         0.64006
   N        0.83636        -1.65682         1.23889
   C        2.06297        -1.23026         1.33417
   C        3.16642        -2.01199         0.82285
   N        2.95953        -3.12197         0.17508
   C        4.49560        -1.54814         1.00755
   N        5.55346        -1.14553         1.17793
   C        2.32120         0.03318         1.92707
   N        2.57942         1.04426         2.39743
   C       -0.71972        -3.30343         0.54992
   C       -0.92679        -4.48171        -0.18245
   C        0.16716        -5.16750        -0.83793
   N       -0.26952        -6.23513        -1.52622
   S       -1.84405        -6.37643        -1.34055
   N       -2.09349        -5.10925        -0.39254
   C       -1.82809        -2.58483         1.14148
   N       -1.85781        -2.20206         2.39186
   C       -3.09845        -1.69224         2.59797
   C       -3.91770        -1.79296         1.37547
   C       -5.27639        -1.26435         1.60945
   O       -6.21138        -1.23819         0.84542
   C       -5.19660        -0.80989         3.01210
   C       -3.85277        -1.10573         3.57611
   N       -3.77362        -0.67717         4.86118
   C       -4.93509        -0.13733         5.11713
   C       -5.87006        -0.17617         4.00097
   C       -3.09968        -2.30795         0.41434
   C       -3.29153        -2.60771        -0.96829
   C       -2.27154        -2.53504        -1.84992
   C       -2.22052        -3.20681        -3.09850
   C       -1.05799        -3.53276        -3.76027
   C        0.37527        -3.29140        -3.54936
   O        0.92590        -2.60715        -2.71657
   N        1.00681        -4.08185        -4.49110
   C        2.44114        -4.16873        -4.61673
   C        0.13720        -4.85445        -5.27094
   O        0.49073        -5.65849        -6.08564
   C       -1.21439        -4.47567        -4.79834
   C       -2.50852        -4.90704        -4.95435
   S       -3.55465        -4.07102        -3.82069
   C       -3.01384        -5.93797        -5.81125
   N       -2.64737        -6.05022        -7.06477
   C       -3.29461        -7.14430        -7.54128
   C       -4.11879        -7.76919        -6.49651
   C       -4.80842        -8.96191        -7.02250
   O       -5.55790        -9.71427        -6.44498
   C       -4.35359        -8.99764        -8.42718
   C       -3.43347        -7.86329        -8.69825
   N       -3.01147        -7.89236        -9.98763
   C       -3.58626        -8.94060       -10.51440
   C       -4.43775        -9.68108        -9.59237
   C       -3.95285        -7.00559        -5.36822
   C       -4.44898        -7.14384        -4.04561
   C       -5.30144        -8.11585        -3.64048
   C       -5.82308        -8.20620        -2.31253
   C       -6.72746        -9.25435        -2.00227
   C       -7.34772        -9.37264        -0.70664
   N       -8.20500       -10.38676        -0.45456
   C       -8.45553       -11.24695        -1.40087
   C       -7.83449       -11.12981        -2.69769
   N       -7.00507       -10.15659        -2.95847
   C       -8.12619       -12.09153        -3.69879
   N       -8.39437       -12.89616        -4.46797
   C       -9.35168       -12.31914        -1.14927
   N      -10.06730       -13.19707        -0.98295
   C       -7.09093        -8.45248         0.30506
   C       -6.20095        -7.42537         0.02633
   C       -5.54915        -7.30119        -1.26338
   N       -4.72255        -6.24478        -1.28128
   S       -4.78751        -5.49164         0.13607
   N       -5.83067        -6.44389         0.86396
   H        2.29998        -5.23670        -1.17457
   H       -5.13862         0.28226         6.08701
   H       -6.86620         0.21955         4.01042
   H       -4.26563        -2.96301        -1.27894
   H       -1.33424        -2.07345        -1.56447
   H        2.75436        -5.21038        -4.53791
   H        2.88417        -3.57769        -3.81651
   H        2.75790        -3.77862        -5.58530
   H       -3.41556        -9.19441       -11.54627
   H       -4.99170       -10.56704        -9.83136
   H       -4.12462        -6.41676        -3.31634
   H       -5.64817        -8.87205        -4.33313
   H       -7.57530        -8.54053         1.26249
*
