# ORCA input file
# SCF done       -179.637714611766          0.000553836678
! CAM-B3LYP def2-SVP def2/J RIJCOSX Grid4 TightSCF
%maxcore 5000
%tddft
    Mode sTDDFT
    Ethresh 5.0
    maxcore 5000
end

%pal
  nprocs 6
  end
* xyz 0 1
   C        3.86182        12.91532        -2.63310
   S        4.70567        11.50644        -3.10167
   C        3.93229        10.55618        -1.86260
   C        3.04998        11.34013        -1.12656
   C        3.01722        12.69422        -1.57717
   C        2.20595        13.68905        -0.99582
   N        1.54680        14.49697        -0.52187
   C        2.25357        10.90184        -0.05719
   N        1.58698        10.57615         0.81881
   C        4.26348         9.18037        -1.74030
   C        3.75537         8.33399        -0.81159
   C        4.13980         6.96836        -0.74212
   N        5.01560         6.43642        -1.58603
   C        5.14241         5.14766        -1.21749
   C        4.29560         4.83136        -0.06090
   C        4.45509         3.42084         0.31737
   O        3.91515         2.80880         1.21841
   C        5.43391         2.92617        -0.66788
   C        5.82741         4.01049        -1.58609
   N        6.72700         3.56684        -2.49595
   C        6.91191         2.30047        -2.20416
   C        6.13537         1.83540        -1.07436
   C        3.63780         5.99783         0.25785
   C        2.69677         6.29207         1.28279
   C        2.32439         5.37915         2.21020
   C        1.40202         5.57954         3.29171
   C        1.27984         4.57024         4.23080
   C        0.41373         4.71277         5.32636
   C        0.13052         3.87404         6.40446
   C        0.67341         2.52599         6.71389
   C        0.20617         1.49811         5.66623
   N       -1.24642         1.43019         5.69195
   C        2.22181         2.54180         6.84933
   N        2.78849         1.38246         7.48943
   C       -0.86571         4.54580         7.20347
   C       -1.49913         4.16646         8.32887
   C       -2.55094         5.00992         8.95105
   C       -2.77825         6.33065         8.27661
   C       -2.13508         6.69107         7.14763
   C       -1.17314         5.83384         6.56826
   C       -0.38305         5.92783         5.43590
   C       -0.25067         6.93952         4.45870
   C        0.61948         6.77172         3.42933
   C       -3.89255         4.32804         8.92180
   C       -4.25165         3.39980         8.02118
   C       -5.55073         2.80631         8.04979
   N       -6.42022         3.08659         9.01007
   C       -7.51009         2.33916         8.75518
   C       -7.32890         1.52528         7.54365
   C       -8.53204         0.71723         7.28032
   O       -8.73340        -0.05610         6.36861
   C       -9.41863         1.08670         8.39641
   C       -8.75852         2.07979         9.27000
   N       -9.56858         2.42521        10.29855
   C      -10.66338         1.72293        10.12243
   C      -10.63732         0.86748         8.95493
   C       -6.07077         1.81702         7.07627
   C       -5.38395         1.34357         5.92387
   C       -5.90364         0.43123         5.06916
   C       -5.23817        -0.01951         3.89970
   S       -3.71520         0.63600         3.36582
   C       -3.65693        -0.40748         1.97816
   C       -4.77490        -1.22263         1.93397
   C       -5.66992        -1.00041         3.01963
   C       -6.86455        -1.72822         3.17194
   N       -7.82881        -2.33999         3.26541
   C       -5.05193        -2.18454         0.94616
   N       -5.31305        -2.98029         0.16294
   C       -2.52674        -0.30911         1.09603
   C       -2.31848        -1.04880         0.00802
   H        4.01841        13.84316        -3.14794
   H        4.98253         8.78497        -2.44500
   H        3.03864         8.68710        -0.08708
   H        7.59301         1.70339        -2.78528
   H        6.14430         0.83886        -0.67881
   H        2.29457         7.29475         1.30475
   H        2.77270         4.39497         2.16003
   H        1.87207         3.67555         4.11328
   H        0.26032         2.20447         7.67638
   H        0.58572         0.50807         5.93408
   H        0.61322         1.76732         4.68004
   H       -1.57488         0.65935         5.12134
   H       -1.63378         2.28807         5.31034
   H        2.50565         3.41774         7.43915
   H        2.68098         2.63322         5.86418
   H        2.62419         0.54007         6.95187
   H        2.41204         1.25133         8.42115
   H       -1.30278         3.21815         8.80921
   H       -2.28599         5.18047        10.00441
   H       -3.51876         6.97149         8.72850
   H       -2.33815         7.64433         6.68191
   H       -0.84033         7.84016         4.54241
   H        0.71844         7.54824         2.68766
   H       -4.62514         4.65284         9.64654
   H       -3.55545         3.05956         7.26744
   H      -11.48159         1.81196        10.81592
   H      -11.42915         0.21826         8.63782
   H       -4.39637         1.74616         5.73264
   H       -6.88108         0.00099         5.25434
   H       -1.80476         0.44650         1.38047
   H       -3.00555        -1.81152        -0.31304
   H       -1.43884        -0.90382        -0.59386
*
