# ORCA input file
# SCF done       -193.684002360222          0.000705037902
! CAM-B3LYP def2-SVP def2/J RIJCOSX Grid4 TightSCF
%maxcore 5000
%tddft
    Mode sTDDFT
    Ethresh 5.0
    maxcore 5000
end

%pal
  nprocs 6
  end
* xyz 0 1
   C        1.30443         3.02650        -1.12227
   C        1.00527         4.45332        -1.47070
   O        0.76476         5.33218        -0.67601
   C        1.12146         4.50979        -2.93303
   C        1.30752         3.21918        -3.44230
   C        1.25526         2.25424        -2.35340
   C        0.99416         0.91856        -2.45481
   C        0.69598         0.10751        -1.33883
   N        0.37752        -0.56572        -0.46539
   C        0.88045         0.22370        -3.67864
   N        0.77909        -0.38414        -4.64577
   C        1.47741         3.01244        -4.81714
   C        1.44290         4.09727        -5.65440
   C        1.23558         5.41053        -5.17639
   C        1.07356         5.63694        -3.77778
   C        0.87154         6.94907        -3.30517
   C        0.82580         7.99620        -4.18493
   C        0.98193         7.77911        -5.56302
   C        1.18330         6.51567        -6.04923
   C        1.67484         2.68151         0.12567
   C        2.27419         1.43344         0.50510
   N        3.20995         0.88512        -0.24197
   C        3.61806        -0.22428         0.42243
   C        2.89175        -0.37062         1.68790
   C        3.31616        -1.58938         2.40143
   O        2.94871        -1.99811         3.47673
   C        4.30488        -2.16821         1.46648
   C        4.46221        -1.29152         0.27755
   N        5.35157        -1.82818        -0.59566
   C        5.73351        -2.95212        -0.04812
   C        5.10992        -3.23223         1.23701
   C        2.00132         0.66968         1.74820
   C        0.99825         0.87088         2.73416
   C       -0.01304         1.76543         2.68172
   C       -1.01799         1.87777         3.68224
   S       -1.14199         0.76029         5.00874
   C       -2.52469         1.57810         5.65274
   C       -2.85065         2.66904         4.85540
   C       -2.01310         2.83343         3.75046
   N       -4.00660         3.50834         5.05289
   O       -3.84980         4.68720         4.83855
   O       -5.04271         2.96771         5.34863
   C       -3.12560         1.23382         6.89847
   N       -3.67146         2.17663         7.64398
   C       -4.13857         1.55110         8.74494
   C       -3.84206         0.11033         8.70376
   C       -4.38803        -0.55930         9.89674
   O       -4.29575        -1.72421        10.22227
   C       -5.05690         0.54254        10.60768
   C       -4.85477         1.82077         9.88242
   N       -5.47853         2.83664        10.52634
   C       -6.05920         2.28351        11.56007
   C       -5.84810         0.84865        11.66446
   C       -3.20374        -0.11496         7.50775
   C       -2.79881        -1.33543         6.89886
   C       -2.94282        -2.52980         7.52017
   C       -2.64217        -3.77782         6.91286
   C       -3.07271        -4.98221         7.36427
   C       -2.44288        -6.25378         6.90436
   O       -1.74406        -6.38828         5.92507
   C       -2.81665        -7.25002         7.92307
   C       -3.70708        -6.67820         8.83518
   C       -4.01202        -5.31273         8.42009
   C       -5.10720        -4.58206         8.78961
   C       -5.53770        -3.41185         8.12428
   N       -5.98173        -2.51103         7.56938
   C       -6.01867        -4.97421         9.79329
   N       -6.78550        -5.24283        10.60352
   C       -4.19031        -7.42039         9.92064
   C       -3.78057        -8.72033        10.06408
   C       -2.89452        -9.33391         9.15098
   C       -2.38894        -8.58671         8.04757
   C       -1.50122        -9.20111         7.14129
   C       -1.13231       -10.50622         7.31913
   C       -1.62905       -11.24785         8.40280
   C       -2.48976       -10.67592         9.29934
   H        1.64244         2.02180        -5.20832
   H        1.57423         3.95625        -6.71740
   H        0.75304         7.10583        -2.24474
   H        0.66813         9.00082        -3.82270
   H        0.94189         8.62011        -6.23895
   H        1.30275         6.34633        -7.10935
   H        1.58923         3.44311         0.89418
   H        6.45458        -3.58017        -0.54215
   H        5.28543        -4.10355         1.83613
   H        1.05669         0.18969         3.57546
   H       -0.11433         2.44482         1.84696
   H       -2.13750         3.62340         3.03153
   H       -6.63043         2.88244        12.24810
   H       -6.24847         0.21355        12.42959
   H       -2.43732        -1.30033         5.88003
   H       -3.30937        -2.54615         8.53756
   H       -1.98232        -3.78953         6.05206
   H       -4.86274        -6.97556        10.63594
   H       -4.14128        -9.30602        10.89735
   H       -1.12564        -8.62175         6.31273
   H       -0.45353       -10.97682         6.62369
   H       -1.32464       -12.27696         8.52367
   H       -2.87351       -11.24476        10.13391
*
