# ORCA input file
# SCF done       -174.420671035399          0.000803758994
! CAM-B3LYP def2-SVP def2/J RIJCOSX Grid4 TightSCF
%maxcore 5000
%tddft
    Mode sTDDFT
    Ethresh 5.0
    maxcore 5000
end

%pal
  nprocs 6
  end
* xyz 0 1
   C       -1.74163        -9.75962         6.31255
   S       -3.02595       -10.54565         7.12648
   C       -3.02327       -11.81021         5.94268
   C       -3.76806       -12.98278         5.76107
   C       -3.36645       -13.66739         4.64465
   C       -3.95077       -14.93448         4.17830
   O       -4.85457       -15.46802         4.76264
   O       -3.42739       -15.47058         3.06362
   S       -2.05593       -12.85753         3.80636
   C       -2.05254       -11.58801         4.96957
   C       -1.29607       -10.39745         5.17487
   C       -0.23379        -9.92188         4.34043
   C        0.13517       -10.52155         3.05538
   N        1.13864        -9.94779         2.45960
   C        1.51460        -8.93220         3.28459
   C        0.65266        -8.87509         4.48002
   C        1.10704        -7.81010         5.34422
   S        0.53103        -7.39209         6.83031
   C        2.22966        -7.22413         4.65218
   C        2.46224        -7.95122         3.39268
   N        3.55928        -7.46496         2.74574
   C        4.03159        -6.53476         3.52228
   C        3.25880        -6.31203         4.74860
   C        3.58245        -5.32316         5.74026
   C        4.89737        -4.94460         5.93266
   C        5.21447        -4.00708         6.92849
   C        6.44358        -3.48786         7.33131
   C        7.77834        -3.86175         6.79418
   C        8.50353        -2.65249         6.16643
   N        9.42349        -3.13276         5.15934
   C        8.63539        -4.54339         7.87874
   N        9.84303        -5.10484         7.29155
   C        6.16816        -2.55470         8.39853
   C        6.97778        -1.77584         9.14125
   C        6.45579        -0.94716        10.25854
   C        4.96277        -0.92753        10.38062
   C        4.16328        -1.70347         9.62278
   C        4.71592        -2.54147         8.62815
   C        4.14752        -3.42520         7.72723
   C        2.81084        -3.81297         7.49010
   C        2.54369        -4.73480         6.52821
   C        6.95861        -1.48122        11.58343
   C        7.23815        -2.77452        11.78255
   C        7.68338        -3.34390        13.01425
   C        7.92139        -2.68331        14.30010
   N        8.32854        -3.47988        15.24761
   C        8.39502        -4.71898        14.67976
   C        7.99982        -4.65874        13.26675
   C        8.06425        -5.96936        12.67451
   S        7.74506        -6.33796        11.10113
   C        8.47949        -6.83088        13.75323
   C        8.68639        -6.02589        14.97354
   N        9.07714        -6.81223        16.01521
   C        9.11738        -8.02151        15.54142
   C        8.74922        -8.13228        14.12565
   C        8.69330        -9.35593        13.41201
   S        9.08341       -10.86230        14.23571
   C        8.76158       -11.75464        12.79763
   C        8.79069       -13.10751        12.44651
   C        8.42913       -13.29791        11.13588
   C        8.35772       -14.61005        10.47253
   O        8.63381       -15.62704        11.04924
   O        7.96945       -14.61912         9.18747
   S        8.04901       -11.79488        10.31331
   C        8.37796       -10.90378        11.75212
   C        8.33975        -9.55249        12.09311
   H       -1.35328        -8.84228         6.71416
   H       -4.55853       -13.32694         6.40135
   H       -2.70589       -14.94854         2.68727
   H       -0.35985       -11.35866         2.59581
   H        4.89752        -5.96903         3.22475
   H        5.68501        -5.39314         5.34624
   H        7.63936        -4.58329         5.98323
   H        8.98854        -2.06496         6.96288
   H        7.76664        -2.00722         5.67504
   H       10.09977        -3.75076         5.59953
   H        9.91368        -2.36488         4.71575
   H        8.01475        -5.29636         8.39148
   H        8.94569        -3.80908         8.62630
   H        9.59952        -5.86539         6.66376
   H       10.43353        -5.49029         8.02111
   H        8.04772        -1.75291         8.99537
   H        6.83087         0.07949        10.14724
   H        4.55720        -0.28689        11.14839
   H        3.09161        -1.68449         9.75631
   H        2.01350        -3.37448         8.07084
   H        1.52748        -5.03406         6.33002
   H        7.02503        -0.76344        12.38756
   H        7.13932        -3.47772        10.96499
   H        7.78730        -1.63506        14.50102
   H        9.40047        -8.85169        16.16541
   H        9.05535       -13.91983        13.09744
   H        7.77432       -13.73902         8.83815
   H        8.06783        -8.75225        11.42850
*
