# ORCA input file
# SCF done       -231.594325393799          0.000456368195
! CAM-B3LYP def2-SVP def2/J RIJCOSX Grid4 TightSCF
%maxcore 5000
%tddft
    Mode sTDDFT
    Ethresh 5.0
    maxcore 5000
end

%pal
  nprocs 6
  end
* xyz 0 1
   C       16.04556        17.91468        -0.08088
   C       17.21925        18.43492        -0.55029
   F       17.27968        19.73692        -0.88591
   C       18.37816        17.66103        -0.69977
   C       18.33629        16.33641        -0.36447
   C       17.15225        15.74745         0.12482
   C       15.98481        16.55232         0.27156
   C       14.78842        15.98700         0.77113
   C       14.76386        14.66114         1.10786
   C       15.92896        13.85682         0.94373
   C       17.09804        14.37854         0.47036
   C       15.62559        12.46825         1.34427
   O       16.38041        11.52326         1.38716
   C       14.16605        12.45823         1.62897
   C       13.70918        13.83051         1.68038
   C       12.63296        14.29035         2.39262
   C       11.82890        13.45046         3.19067
   N       11.19625        12.80219         3.89589
   C       12.28047        15.65051         2.49045
   N       11.94614        16.74468         2.58474
   C       13.49600        11.27775         1.70379
   C       12.11038        11.02754         1.54956
   S       11.06115        12.06634         0.61074
   C        9.74651        10.99533         0.84098
   C       10.06622         9.90998         1.60451
   C       11.42217         9.91365         1.99820
   C       12.02544         8.83354         2.83044
   C       10.94263         7.96464         3.48347
   C        9.89315         7.57918         2.43501
   C        9.11893         8.82346         2.00457
   C       11.58690         6.76924         4.14610
   C       11.46531         6.56164         5.45550
   C       12.35284         5.87629         3.28617
   C       13.49242         5.27481         3.65250
   C       14.29409         4.39750         2.82272
   C       15.62572         4.22855         3.11531
   C       16.44276         3.41091         2.30488
   C       17.79625         3.11352         2.35218
   C       18.82548         3.56697         3.33335
   C       18.98475         5.09832         3.33000
   N       20.30993         5.44206         3.81198
   C       18.50200         3.02839         4.73940
   N       19.59840         3.27981         5.66272
   C       18.06302         2.21212         1.25491
   C       19.20531         1.63724         0.83719
   C       19.23284         0.69803        -0.31377
   C       17.91127         0.50738        -0.99535
   C       16.78207         1.10964        -0.57994
   C       16.80196         1.96940         0.54290
   C       15.82936         2.71466         1.17908
   C       14.45023         2.88360         0.91890
   C       13.71532         3.70583         1.70900
   C       19.76132        -0.66362         0.07176
   C       20.01376        -1.06695         1.31621
   C       20.47748        -2.38281         1.66066
   S       20.41929        -3.69277         0.51253
   C       21.10318        -4.77317         1.65867
   C       21.36414        -4.17424         2.85128
   C       21.00373        -2.80189         2.85908
   C       21.25586        -1.91305         4.03891
   C       21.58083        -2.72712         5.30199
   C       22.60084        -3.81423         4.96408
   C       21.95629        -4.85045         4.04727
   C       22.02342        -1.77527         6.39116
   C       23.30057        -1.61988         6.75063
   C       20.95426        -1.04521         7.04683
   C       21.03213         0.21430         7.53419
   C       22.14028         1.07461         7.29554
   C       22.63748         2.13514         7.98978
   C       23.98861         2.61570         7.57289
   O       24.54659         2.36091         6.52896
   C       24.51033         3.37984         8.71660
   C       25.74733         3.93043         8.88846
   C       26.05170         4.57375        10.10869
   C       25.06151         4.62607        11.13255
   C       25.37404         5.25634        12.35288
   C       26.61452         5.80395        12.52703
   C       27.60045         5.76467        11.53184
   C       27.31409         5.15622        10.34132
   F       26.91525         6.40539        13.69276
   C       23.78533         4.05414        10.92186
   C       23.50817         3.44563         9.72636
   C       22.29168         2.80652         9.22617
   C       21.04892         2.98860         9.78106
   C       20.81210         3.67543        10.98995
   N       20.54702         4.20354        11.97444
   C       19.83850         2.62375         9.17150
   N       18.82239         2.39409         8.68437
   H       15.17368        18.54112         0.02505
   H       19.27568        18.12656        -1.07511
   H       19.21608        15.71967        -0.47085
   H       13.91628        16.61454         0.86696
   H       17.97274        13.75482         0.36183
   H       14.12205        10.39652         1.81324
   H        8.79915        11.22888         0.39565
   H       12.66384         9.26514         3.60403
   H       12.66290         8.20639         2.19586
   H       10.44315         8.55881         4.25559
   H        9.20533         6.84077         2.85075
   H       10.37919         7.14062         1.56148
   H        8.50722         9.18116         2.83851
   H        8.44307         8.59210         1.17833
   H       10.90454         7.23004         6.08643
   H       11.90321         5.70421         5.93633
   H       11.97698         5.74599         2.28070
   H       13.90190         5.49068         4.63131
   H       16.05427         4.74786         3.95923
   H       19.79848         3.16118         3.03832
   H       18.17368         5.55100         3.92151
   H       18.89274         5.46585         2.30193
   H       20.42074         5.05237         4.74504
   H       20.41258         6.44964         3.87012
   H       18.25324         1.95609         4.65085
   H       17.61961         3.53632         5.13334
   H       20.40301         2.71073         5.41589
   H       19.31353         3.02748         6.60376
   H       20.15386         1.83403         1.31883
   H       19.94033         1.10562        -1.05619
   H       17.90947        -0.16235        -1.84196
   H       15.84824         0.94379        -1.09803
   H       13.99689         2.35503         0.09261
   H       12.65855         3.82652         1.52453
   H       19.89974        -1.34990        -0.75314
   H       19.88231        -0.38944         2.14889
   H       21.27509        -5.79418         1.38111
   H       20.38982        -1.27200         4.22565
   H       22.10413        -1.25679         3.81304
   H       20.66024        -3.22018         5.63719
   H       22.95069        -4.29734         5.87815
   H       23.45829        -3.37226         4.45341
   H       21.16689        -5.38093         4.59027
   H       22.69092        -5.59383         3.73124
   H       24.10343        -2.14824         6.26932
   H       23.57998        -0.99162         7.57876
   H       20.02102        -1.58103         7.16786
   H       20.19488         0.58710         8.10333
   H       22.74845         0.81102         6.43238
   H       26.48638         3.87254         8.10344
   H       24.63837         5.30862        13.14024
   H       28.56135         6.21389        11.72656
   H       28.05711         5.11288         9.55917
   H       23.06304         4.10325        11.72070
*
