# ORCA input file
# SCF done       -218.686904003653          0.000604000146
! CAM-B3LYP def2-SVP def2/J RIJCOSX Grid4 TightSCF
%maxcore 5000
%tddft
    Mode sTDDFT
    Ethresh 5.0
    maxcore 5000
end

%pal
  nprocs 6
  end
* xyz 0 1
   C       13.12830       -12.86369        -9.72732
   C       13.33881       -13.59655       -10.86212
   F       13.67121       -12.96734       -12.00464
   C       13.22095       -14.99261       -10.88862
   C       12.87959       -15.64912        -9.73882
   C       12.64895       -14.94329        -8.54059
   C       12.78061       -13.52418        -8.53303
   C       12.57091       -12.79503        -7.33867
   C       12.23341       -13.46539        -6.19446
   C       12.07720       -14.88163        -6.21469
   C       12.28574       -15.61079        -7.34894
   C       11.66119       -15.34397        -4.87607
   O       11.46910       -16.48088        -4.50838
   C       11.46749       -14.10439        -4.07655
   C       12.00059       -12.99518        -4.83035
   C       12.43240       -11.79279        -4.32620
   C       12.46738       -11.48646        -2.95252
   N       12.56860       -11.21317        -1.84184
   C       12.96169       -10.75349        -5.11572
   N       13.36447        -9.86285        -5.71810
   C       10.80171       -14.18060        -2.88642
   C       10.19319       -13.15260        -2.14086
   S        9.90130       -13.40714        -0.41481
   C        9.23952       -11.83053        -0.21839
   C        9.20151       -11.15969        -1.39449
   C        9.72123       -11.90201        -2.50217
   C        9.55800       -11.11900        -3.68188
   C        9.03342        -9.88772        -3.36221
   C        8.77176        -9.83497        -1.87957
   O        8.30435        -8.92675        -1.23458
   C        8.79917        -8.82857        -4.27557
   C        8.41911        -7.58187        -3.89871
   C        8.22500        -6.44802        -4.75534
   C        8.06850        -6.54813        -6.12397
   C        7.90927        -5.39086        -6.91069
   C        7.74705        -5.20604        -8.28139
   C        7.62759        -6.20324        -9.38196
   C        8.72932        -7.29288        -9.36793
   N       10.08452        -6.81026        -9.24383
   C        6.23482        -6.86574        -9.35561
   N        5.20196        -5.87391        -9.60848
   C        7.63686        -3.77928        -8.49896
   C        7.42683        -3.07028        -9.62286
   C        7.29872        -1.58913        -9.59399
   C        7.51437        -0.96719        -8.24373
   C        7.70585        -1.69449        -7.12998
   C        7.75718        -3.10739        -7.20058
   C        7.91764        -4.08865        -6.24733
   C        8.05631        -4.01475        -4.84121
   C        8.19381        -5.15618        -4.12664
   C        5.94489        -1.11627       -10.05404
   C        4.89671        -1.89454       -10.34087
   C        3.61417        -1.37289       -10.69894
   S        3.20274         0.32415       -10.47686
   C        1.59864         0.09532       -11.08332
   C        1.38960        -1.19308       -11.43360
   C        2.53014        -2.03790       -11.22137
   C        2.21708        -3.35468       -11.68007
   C        0.92429        -3.38602       -12.14222
   C        0.31636        -2.01405       -12.02784
   O       -0.79595        -1.68501       -12.35871
   C        0.17354        -4.43076       -12.73824
   C        0.47927        -5.75599       -12.76509
   C        1.47920        -6.38717       -11.99157
   C        2.01373        -7.62464       -12.20983
   C        2.69279        -8.36850       -11.12635
   O        3.04978        -7.92223       -10.05341
   C        2.79028        -9.75873       -11.60603
   C        3.25140       -10.86661       -10.95491
   C        3.21510       -12.11798       -11.61048
   C        2.69475       -12.19808       -12.93512
   C        2.65331       -13.44906       -13.57988
   C        3.11477       -14.55710       -12.92486
   C        3.63215       -14.49919       -11.62367
   C        3.67822       -13.29239       -10.98268
   F        3.07765       -15.75264       -13.53903
   C        2.23370       -11.03229       -13.59061
   C        2.28633        -9.83118       -12.93835
   C        1.93126        -8.48234       -13.36990
   C        1.76134        -8.07282       -14.66735
   C        1.76509        -6.71741       -15.05877
   N        1.84098        -5.63244       -15.42538
   C        1.69600        -8.95417       -15.76558
   N        1.61397        -9.63347       -16.68722
   H       13.23151       -11.78989        -9.74282
   H       13.40133       -15.51772       -11.81315
   H       12.78170       -16.72430        -9.73413
   H       12.67631       -11.72178        -7.36254
   H       12.17470       -16.68469        -7.33852
   H       10.69419       -15.18561        -2.48935
   H        8.92180       -11.50357         0.75239
   H        9.79076       -11.44185        -4.68137
   H        8.99952        -9.05320        -5.31687
   H        8.29325        -7.39443        -2.84123
   H        8.04810        -7.52086        -6.58884
   H        7.70518        -5.66522       -10.33266
   H        8.66039        -7.85468       -10.30431
   H        8.55160        -7.99416        -8.55076
   H       10.21332        -6.32726        -8.36096
   H       10.30514        -6.16082        -9.99091
   H        6.10715        -7.38888        -8.39530
   H        6.18207        -7.60911       -10.15589
   H        5.11770        -5.26107        -8.80152
   H        4.31341        -6.35653        -9.71829
   H        7.32332        -3.54294       -10.58970
   H        8.04059        -1.17031       -10.29387
   H        7.47291         0.11054        -8.20866
   H        7.83671        -1.21158        -6.17268
   H        8.04582        -3.04934        -4.35753
   H        8.29974        -5.12016        -3.05261
   H        5.83345        -0.04012       -10.09549
   H        4.97475        -2.97380       -10.32591
   H        0.93264         0.93349       -11.14257
   H        2.92757        -4.16107       -11.71319
   H       -0.71769        -4.09494       -13.25366
   H       -0.12888        -6.39690       -13.39157
   H        1.77385        -5.90343       -11.06616
   H        3.63774       -10.79167        -9.94929
   H        2.26431       -13.52963       -14.58288
   H        3.98166       -15.40648       -11.15709
   H        4.07193       -13.22381        -9.97970
   H        1.84158       -11.12085       -14.59141
*
