# ORCA input file
# SCF done       -259.375635760147          0.000501415862
! CAM-B3LYP def2-SVP def2/J RIJCOSX Grid4 TightSCF
%maxcore 5000
%tddft
    Mode sTDDFT
    Ethresh 5.0
    maxcore 5000
end

%pal
  nprocs 6
  end
* xyz 0 1
   C       -3.46219         1.84423         6.70020
   C       -2.80059         2.93630         7.18666
   C       -3.39446         3.92150         8.00401
   N       -3.83249         4.75068         8.66505
   C       -1.43437         3.19245         6.94206
   N       -0.32929         3.44286         6.76160
   C       -4.86284         1.50515         6.91214
   C       -5.11367         0.20919         6.39156
   C       -6.35734        -0.37130         6.41101
   C       -7.40806         0.36612         6.96026
   C       -7.15098         1.65675         7.48587
   C       -5.89143         2.24060         7.47546
   S       -8.59204         2.37583         8.13661
   C       -9.49037         0.94433         7.70714
   C       -8.76862        -0.01662         7.09137
  Br      -11.28979         0.80559         8.16178
   C       -3.87401        -0.33310         5.81847
   O       -3.62643        -1.47138         5.49756
   C       -2.90654         0.80971         5.83603
   C       -1.80759         0.81515         5.05564
   C       -1.70301        -0.15323         3.98157
   C       -0.70794        -0.98526         3.64298
   C       -1.11919        -1.79830         2.44860
   N       -1.05589        -3.24866         2.82587
   O        0.04794        -3.70008         2.98020
   O       -2.09142        -3.84453         2.93695
   C       -2.50266        -1.28994         2.14699
   C       -3.24613        -1.72143         0.91601
   C       -2.36512        -1.58954        -0.29219
   C       -2.22404        -2.77821        -0.90309
   C       -3.00882        -3.76594        -0.21158
   C       -3.61514        -3.18101         0.84640
   N       -4.57308        -3.80274         1.67898
   O       -4.69879        -5.00430         1.59107
   O       -5.26222        -3.08456         2.37984
   C       -2.83444        -0.33050         3.03480
   C       -4.02553         0.47942         3.17410
   C       -5.27859        -0.00510         3.16851
   C       -6.47823         0.72097         3.51733
   C       -7.67329         0.03776         3.53237
   C       -8.86487         0.67808         3.93151
   C      -10.17747         0.23031         3.99777
   C      -10.64945        -1.13224         3.60353
   C      -11.25753        -1.92374         4.77392
   N      -10.21463        -2.34140         5.70215
   C      -11.60788        -1.09449         2.38911
   N      -12.97956        -0.77174         2.74826
   C      -10.97755         1.35407         4.42804
   C      -12.30921         1.50746         4.56662
   C      -12.91504         2.81996         4.93824
   C      -11.92860         3.91785         5.18301
   C      -10.60093         3.74443         5.05939
   C      -10.07589         2.49210         4.65656
   C       -8.79921         2.07286         4.34840
   C       -7.55645         2.74731         4.34014
   C       -6.44278         2.09640         3.92401
   C      -13.75239         2.62730         6.17457
   C      -15.08186         2.64359         6.23091
   C      -15.80143         2.42034         7.46723
   C      -15.35494         1.79429         8.57445
   C      -16.43372         1.78114         9.61562
   N      -15.94624         2.51964        10.81652
   O      -15.53252         1.85263        11.72837
   O      -15.98751         3.72178        10.77767
   C      -17.57456         2.48374         8.92773
   C      -18.80703         2.84626         9.68940
   C      -19.20507         1.87193        10.74667
   C      -19.31806         2.49003        11.93815
   C      -18.99806         3.88055        11.78902
   C      -18.67211         4.11558        10.49540
   N      -18.32891         5.35767         9.93705
   O      -18.22708         5.42222         8.71794
   O      -18.18161         6.30016        10.68337
   C      -17.20121         2.83523         7.68140
   C      -17.95635         3.53289         6.65370
   C      -19.06320         3.05560         6.07116
   C      -19.67663         3.66526         4.91927
   C      -19.86895         4.97635         4.66013
   C      -19.81992         6.15004         5.51747
   C      -20.17389         6.18264         6.83596
   C      -20.27610         7.36761         7.59611
   N      -20.39756         8.31160         8.23515
   C      -20.59609         5.03507         7.52906
   N      -21.01639         4.13150         8.10146
   C      -19.64513         7.30844         4.65416
   C      -19.84225         6.90610         3.30765
   C      -20.08081         5.45035         3.26011
   O      -20.33609         4.76672         2.29669
   C      -19.79713         7.79823         2.26259
   C      -19.53476         9.13938         2.55968
   C      -19.32101         9.52497         3.90643
   C      -19.37466         8.62735         4.96510
   S      -19.00279        11.22667         4.04141
   C      -19.16491        11.39818         2.31355
   C      -19.43994        10.24102         1.66585
  Br      -18.95297        13.08708         1.52722
   H       -6.51579        -1.35871         6.00908
   H       -5.74295         3.22720         7.88298
   H       -9.18573        -0.94015         6.71239
   H       -1.05242         1.58625         5.12008
   H        0.21930        -1.15124         4.15779
   H       -0.42280        -1.68040         1.61114
   H       -4.14368        -1.09950         0.83684
   H       -1.90140        -0.65824        -0.56067
   H       -1.64159        -2.98463        -1.78208
   H       -3.11385        -4.79486        -0.50284
   H       -3.83344         1.52162         3.39822
   H       -5.41736        -1.06137         2.98401
   H       -7.68691        -1.00035         3.23271
   H       -9.76585        -1.68716         3.26847
   H      -11.80906        -2.78589         4.36209
   H      -11.95905        -1.29638         5.32770
   H       -9.54353        -2.93866         5.22760
   H      -10.62330        -2.88095         6.45890
   H      -11.53305        -2.06541         1.87175
   H      -11.25311        -0.32302         1.70093
   H      -13.51846        -0.57248         1.91334
   H      -13.41741        -1.55758         3.21673
   H      -12.99183         0.69617         4.36192
   H      -13.58441         3.11271         4.11552
   H      -12.34537         4.86690         5.48373
   H       -9.91855         4.56177         5.24480
   H       -7.50959         3.78025         4.65464
   H       -5.49947         2.62059         3.90563
   H      -13.18505         2.47188         7.07733
   H      -15.68105         2.83740         5.35068
   H      -14.39306         1.34604         8.73694
   H      -16.68048         0.76907         9.94983
   H      -19.63961         2.99480         8.98216
   H      -19.37455         0.83146        10.53899
   H      -19.60386         2.03787        12.86962
   H      -19.01930         4.61564        12.57222
   H      -17.50836         4.45289         6.30078
   H      -19.45124         2.08749         6.36178
   H      -19.93423         2.98661         4.11059
   H      -19.96144         7.47297         1.24727
   H      -19.20064         8.95620         5.97656
   H      -19.57167        10.16564         0.60195
*
