# ORCA input file
# SCF done       -191.383161844022          0.001705992945
! CAM-B3LYP def2-SVP def2/J RIJCOSX Grid4 TightSCF
%maxcore 5000
%tddft
    Mode sTDDFT
    Ethresh 5.0
    maxcore 5000
end

%pal
  nprocs 6
  end
* xyz 0 1
   C        0.83890         5.13569        -2.78146
   C        0.75937         4.72715        -4.08768
   C        1.63639         3.74352        -4.59292
   N        2.33731         2.93431        -5.00434
   C       -0.17138         5.19826        -5.03028
   N       -0.90501         5.54057        -5.84502
   C        0.02074         6.09011        -2.07667
   C        0.38009         6.21738        -0.71928
   C       -0.31760         7.10114         0.09957
   C       -1.35696         7.83994        -0.42944
   C       -1.71247         7.71018        -1.76766
   C       -1.03174         6.84054        -2.59643
   C        1.47933         5.36757        -0.32920
   S        2.05631         4.46074        -1.72451
   C        1.96580         5.22722         0.93177
   C        3.01814         4.39252         1.37438
   C        3.97319         3.67869         0.66700
   C        4.80173         2.93739         1.50557
   C        4.47764         3.07570         2.86830
   S        3.17785         4.14913         3.11531
   C        5.32034         2.22403         3.62249
   C        6.18340         1.55044         2.74087
   C        5.90722         1.99896         1.38438
   C        6.55710         1.62949         0.24468
   C        7.62026         0.70164         0.25950
   N        8.48225        -0.05404         0.27655
   C        6.22523         2.16959        -1.01695
   N        5.96785         2.62379        -2.03725
   C        7.01029         0.63237         3.38637
   C        6.77746         0.59583         4.74953
   S        5.53691         1.73859         5.24653
   C        7.34359        -0.28986         5.69989
   C        7.04865        -0.37736         7.04855
   C        7.69485        -1.45391         7.65414
   C        8.49623        -2.18495         6.76031
   S        8.46807        -1.53822         5.17973
   C        9.02613        -3.30795         7.44337
   C        8.55412        -3.29145         8.76731
   C        7.72853        -2.10837         8.95291
   C        7.11029        -1.70268        10.09837
   C        7.21795        -2.42718        11.30454
   N        7.30723        -3.01505        12.28469
   C        6.32816        -0.52945        10.15118
   N        5.69243         0.42437        10.19174
   C        8.94185        -4.41514         9.49613
   C        9.70779        -5.28272         8.73917
   S        9.97443        -4.68746         7.10560
   C       10.18667        -6.56382         9.11279
   C       11.01664        -7.40040         8.38894
   C       11.19689        -8.62975         9.02216
   C       10.49047        -8.72977        10.23403
   S        9.63138        -7.30223        10.60929
   C       10.67938       -10.02881        10.76351
   C       11.51792       -10.75063         9.89146
   C       11.88159        -9.88864         8.77659
   C       12.68777       -10.19850         7.72120
   C       13.29809       -11.46379         7.59220
   N       13.79317       -12.49279         7.48751
   C       12.96411        -9.27297         6.69266
   N       13.18815        -8.52066         5.85697
   C       11.72508       -12.06040        10.30637
   C       11.04070       -12.35651        11.48047
   S       10.14598       -10.96629        12.08450
   C       11.02130       -13.62076        12.10670
   C       10.30901       -14.00622        13.19852
   C       10.27838       -15.32488        13.78095
   C        9.40739       -15.43493        14.88481
   C        8.74274       -14.19522        15.19329
   C        7.82901       -13.91959        16.17847
   C        7.34891       -14.84280        17.12335
   N        6.92010       -15.55062        17.91989
   C        7.28498       -12.62407        16.30322
   N        6.84684       -11.56772        16.39516
   S        9.23992       -12.93097        14.09228
   C        9.26206       -16.65352        15.54480
   C        9.98138       -17.74676        15.10484
   C       10.84219       -17.63957        14.01743
   C       10.99563       -16.43895        13.35343
   H       -0.04956         7.21274         1.13840
   H       -1.89889         8.52617         0.20335
   H       -2.52732         8.29484        -2.16517
   H       -1.31163         6.74654        -3.63258
   H        1.46711         5.78611         1.71268
   H        4.06787         3.70946        -0.40225
   H        7.73478         0.00213         2.90250
   H        6.37828         0.30231         7.54345
   H        8.67742        -4.61301        10.51945
   H       11.45175        -7.11692         7.44734
   H       12.32687       -12.78488         9.78816
   H       11.63931       -14.36842        11.62728
   H        8.59690       -16.74317        16.38775
   H        9.87288       -18.69308        15.61133
   H       11.39642       -18.50512        13.68790
   H       11.66595       -16.36762        12.51139
*
