# ORCA input file
# SCF done       -191.886819480187          0.000400423668
! CAM-B3LYP def2-SVP def2/J RIJCOSX Grid4 TightSCF
%maxcore 5000
%tddft
    Mode sTDDFT
    Ethresh 5.0
    maxcore 5000
end

%pal
  nprocs 6
  end
* xyz 0 1
   C        2.01690         5.42357         0.67660
   C        1.09676         6.42141         0.51379
   F        0.21785         6.68013         1.49931
   C        1.02817         7.19776        -0.65110
   C        1.91364         6.95105        -1.66310
   C        2.88445         5.93471        -1.54896
   C        2.93482         5.15344        -0.35697
   C        3.88702         4.11602        -0.22729
   C        4.76160         3.88201        -1.25247
   C        4.72467         4.67987        -2.43424
   C        3.80469         5.67596        -2.58984
   C        5.77803         4.23032        -3.36378
   O        6.00206         4.60776        -4.49047
   C        6.55725         3.21685        -2.59826
   C        5.77147         2.85162        -1.43786
   C        5.76463         1.60664        -0.86273
   C        6.49032         0.55793        -1.45141
   N        7.01328        -0.29816        -2.01437
   C        4.93316         1.23076         0.20870
   N        4.29550         0.88911         1.09945
   C        7.79169         2.82096        -3.00189
   C        8.76057         2.14369        -2.21776
   C        8.91349         2.14757        -0.84026
   C        9.99753         1.38129        -0.42436
   C       10.67225         0.76563        -1.50308
   S        9.99828         1.17655        -3.01344
   C       11.71698        -0.01988        -0.98755
   C       11.73804         0.10523         0.42092
   C       10.64967         0.99597         0.81258
   C       10.30153         1.37463         2.07736
   C       11.01674         0.94230         3.21255
   N       11.60440         0.59227         4.13302
   C        9.20218         2.22588         2.31450
   N        8.30641         2.91960         2.49230
   C       12.73040        -0.65686         1.01389
   C       13.46078        -1.40803         0.08235
   S       12.90410        -1.09962        -1.56381
   C       14.47434        -2.33457         0.36217
   C       15.01590        -3.22339        -0.54362
   C       15.97966        -4.23987        -0.33562
   C       16.20090        -5.04879        -1.41972
   C       15.41486        -4.71865        -2.53732
   S       14.45589        -3.29761        -2.19403
   C       15.17300        -5.29806        -3.77815
   C       15.76722        -6.31761        -4.54159
   C       15.15525        -6.52585        -5.75060
   C       14.03363        -5.69786        -5.99598
   S       13.79909        -4.63748        -4.63189
   C       13.20234        -5.64748        -7.09716
   C       12.06848        -4.83334        -7.21641
   C       11.26396        -4.66575        -8.35303
   C       10.21813        -3.78290        -8.14065
   C       10.19135        -3.27894        -6.82056
   S       11.47146        -3.87016        -5.86325
   C        9.10452        -2.40396        -6.68488
   C        8.43124        -2.31164        -7.92735
   C        9.09965        -3.19121        -8.87292
   C        8.75697        -3.44527       -10.16781
   C        7.63158        -2.87626       -10.80388
   N        6.71655        -2.45506       -11.34979
   C        9.50611        -4.33409       -10.96821
   N       10.11655        -5.05521       -11.61824
   C        7.35764        -1.42833        -7.88609
   C        7.19207        -0.87862        -6.61983
   S        8.39473        -1.44884        -5.46649
   C        6.20332         0.04445        -6.21982
   C        5.30900         0.75154        -7.00086
   C        4.51161         1.57966        -6.13683
   C        4.93804         1.32600        -4.76619
   O        4.54589         1.75769        -3.70507
   N        5.97751         0.40987        -4.90584
   C        3.68294         2.29252        -6.93707
   O        3.87655         1.98587        -8.23306
   C        4.89219         1.01968        -8.35069
   O        5.24317         0.58925        -9.41659
   H        2.03800         4.84299         1.58555
   H        0.27982         7.97099        -0.72348
   H        1.88006         7.53628        -2.56979
   H        3.90922         3.53492         0.68178
   H        3.77590         6.26045        -3.49730
   H        8.08128         3.09945        -4.00959
   H        8.27729         2.71642        -0.18608
   H       12.92382        -0.70904         2.07030
   H       14.81589        -2.38602         1.38723
   H       16.46839        -4.36197         0.61511
   H       16.87629        -5.88601        -1.42060
   H       16.63182        -6.85970        -4.20140
   H       15.47733        -7.25970        -6.46857
   H       13.43879        -6.28052        -7.94163
   H       11.47122        -5.17180        -9.27864
   H        6.71331        -1.17194        -8.70961
   H        6.45811         0.01014        -4.10652
   H        2.93431         3.03154        -6.72095
*
