# ORCA input file
# SCF done       -227.688964902476          0.000622899725
! CAM-B3LYP def2-SVP def2/J RIJCOSX Grid4 TightSCF
%maxcore 5000
%tddft
    Mode sTDDFT
    Ethresh 5.0
    maxcore 5000
end

%pal
  nprocs 6
  end
* xyz 0 1
   C       -6.06967         3.15865         2.54934
   C       -5.76156         3.42206         3.87639
   C       -5.09390         2.48811         4.65462
   C       -4.70978         1.26373         4.12701
   C       -5.01462         0.98818         2.80510
   C       -5.69908         1.93672         2.01200
   C       -5.89071         1.37935         0.67879
   C       -6.38421         2.05377        -0.40838
   C       -6.80993         3.39850        -0.37935
   N       -7.17623         4.48537        -0.42865
   C       -6.49012         1.53553        -1.71550
   N       -6.58875         1.18894        -2.80695
   C       -5.44162        -0.00580         0.73333
   C       -4.72456        -0.17603         1.98215
   C       -3.77822        -1.12999         2.25612
   C       -3.31514        -2.07586         1.32134
   N       -2.87996        -2.85081         0.59394
   C       -3.11546        -1.25638         3.49219
   N       -2.57150        -1.44340         4.48636
   C       -5.75668        -0.93840        -0.22328
   C       -5.74279        -2.34899        -0.15893
   C       -5.87536        -3.09278         1.02831
   C       -5.85360        -4.53978         1.04972
   N       -6.03257        -4.99755         2.29378
   S       -6.21411        -3.77428         3.30609
   N       -6.07691        -2.58011         2.24562
   C       -5.66836        -5.32103        -0.11811
   C       -5.64269        -4.58102        -1.33766
   C       -5.55542        -5.07402        -2.62738
   S       -5.52979        -3.85298        -3.80455
   C       -5.62299        -2.62557        -2.63356
   C       -5.69301        -3.12783        -1.35349
   C       -5.49252        -6.73224        -0.01078
   C       -5.41140        -7.45081         1.16214
   C       -5.20194        -8.83093         1.00203
   C       -5.05150        -9.80904         2.01258
   C       -5.04722        -9.48263         3.42146
   C       -5.55945       -10.22412         4.45133
   C       -5.32503        -9.63974         5.71160
   C       -4.62638        -8.46559         5.67037
   S       -4.25603        -8.05402         4.03459
   C       -4.18791        -7.61313         6.80382
  Cl       -5.87514       -10.35053         7.17857
   C       -4.87708       -11.11979         1.58006
   C       -4.81620       -11.48554         0.20929
   C       -4.94383       -10.50504        -0.80187
   C       -5.15121        -9.20344        -0.36683
   S       -5.31873        -7.80769        -1.38964
   C       -4.82094       -10.81309        -2.21076
   C       -5.49493       -10.24785        -3.25560
   C       -5.07002       -10.73235        -4.51150
   C       -4.06721       -11.65591        -4.45285
   S       -3.63802       -11.95243        -2.80264
   C       -3.38193       -12.36291        -5.56310
  Cl       -5.76925       -10.18703        -5.98736
   C       -4.61063       -12.86905         0.04667
   C       -4.47053       -13.55477         1.22808
   S       -4.66863       -12.50629         2.61077
   C       -4.23359       -14.94814         1.43099
   C       -4.68235       -15.56949         2.60804
   C       -4.50215       -16.97763         2.86193
   N       -5.01539       -17.33484         4.04182
   S       -5.66069       -16.04963         4.74363
   N       -5.33203       -14.96865         3.61272
   C       -3.77972       -17.81676         1.98967
   C       -3.34652       -17.20298         0.77422
   C       -2.70509       -17.81897        -0.27691
   S       -2.28128       -16.72832        -1.51569
   C       -2.96623       -15.41630        -0.68734
   C       -3.54707       -15.78797         0.51203
   C       -3.56776       -19.15387         2.38913
   C       -2.54499       -20.02065         2.07744
   C       -2.63763       -21.46792         2.19668
   C       -3.68454       -22.19609         2.70014
   C       -4.89439       -21.67937         3.21033
   N       -5.91954       -21.36397         3.62174
   C       -3.70186       -23.60491         2.77987
   N       -3.78756       -24.74526         2.88210
   C       -1.42687       -22.02375         1.60320
   C       -0.59152       -20.96038         1.19327
   C        0.61675       -21.21403         0.56595
   C        0.98970       -22.53300         0.35268
   C        0.17708       -23.57832         0.76500
   C       -1.03635       -23.33628         1.39283
   C       -1.21846       -19.70652         1.58533
   C       -0.57667       -18.49403         1.67318
   C        0.70661       -18.24094         1.14973
   N        1.72637       -17.95351         0.70657
   C       -1.05792       -17.37289         2.37582
   N       -1.35049       -16.44021         2.97956
   H       -6.59121         3.89552         1.96095
   H       -6.04940         4.36907         4.30684
   H       -4.86934         2.71406         5.68594
   H       -4.19580         0.54388         4.74303
   H       -6.13134        -0.54572        -1.15731
   H       -5.51316        -6.08805        -2.96114
   H       -5.63376        -1.60255        -2.95124
   H       -5.50989        -6.97184         2.11642
   H       -6.11671       -11.13315         4.32361
   H       -4.90319        -7.68519         7.62077
   H       -4.09630        -6.57584         6.49146
   H       -3.21664        -7.94400         7.17465
   H       -6.29463        -9.53998        -3.14453
   H       -3.78358       -12.02366        -6.51449
   H       -3.52640       -13.43998        -5.48180
   H       -2.31053       -12.16634        -5.54031
   H       -4.64363       -13.35701        -0.90797
   H       -2.49423       -18.86105        -0.40471
   H       -2.88110       -14.43740        -1.11061
   H       -4.33580       -19.52407         3.05697
   H        1.25609       -20.41080         0.23787
   H        1.92630       -22.74462        -0.14010
   H        0.48874       -24.59747         0.59480
   H       -1.65336       -24.16210         1.70562
*
