# ORCA input file
# SCF done       -205.500132199804          0.000407945092
! CAM-B3LYP def2-SVP def2/J RIJCOSX Grid4 TightSCF
%maxcore 5000
%tddft
    Mode sTDDFT
    Ethresh 5.0
    maxcore 5000
end

%pal
  nprocs 6
  end
* xyz 0 1
   C       -9.86706         1.03094         3.93216
   C      -10.83566         1.79567         3.29904
   C      -11.63253         1.25832         2.29843
   C      -11.49220        -0.06522         1.90517
   C      -10.52829        -0.83736         2.52901
   C       -9.70644        -0.28807         3.53959
   C       -8.75960        -1.30297         3.97346
   C       -7.89469        -1.18847         5.03190
   C       -7.81803        -0.06738         5.88541
   N       -7.66777         0.79007         6.63456
   C       -6.94811        -2.14390         5.45031
   N       -6.12220        -2.83480         5.85607
   C       -8.91949        -2.44176         3.07878
   C      -10.16470        -2.23650         2.35424
   C      -10.99423        -3.20873         1.86073
   C      -10.74844        -4.58954         1.98753
   N      -10.60251        -5.72240         2.10676
   C      -12.25648        -2.94480         1.28685
   N      -13.29376        -2.78825         0.82274
   C       -7.96416        -3.41456         2.94406
   C       -7.76511        -4.38538         1.94927
   C       -8.31422        -4.57320         0.68314
   C       -7.83649        -5.72025         0.06581
   C       -6.87928        -6.40448         0.85506
   S       -6.56939        -5.62787         2.33227
   C       -6.49634        -7.57192         0.18304
   C       -7.21463        -7.67105        -1.03188
   C       -8.07707        -6.49607        -1.13860
   C       -8.96027        -6.20357        -2.13674
   C       -9.13030        -7.04455        -3.25548
   N       -9.25950        -7.73126        -4.16470
   C       -9.75374        -5.03752        -2.09670
   N      -10.39034        -4.08496        -2.05199
   C       -6.92263        -8.83160        -1.72831
   C       -5.97484        -9.63301        -1.07109
   S       -5.45305        -8.89155         0.44304
   C       -5.48213       -10.87697        -1.48559
   C       -4.52544       -11.61777        -0.81855
   C       -4.00646       -12.90083        -1.11770
   C       -3.06270       -13.35834        -0.23434
   C       -2.77459       -12.45278         0.80172
   S       -3.75394       -11.01669         0.62394
   C       -1.91576       -12.43299         1.89629
   C       -1.04810       -13.35397         2.50902
   C       -0.44156       -12.86943         3.63926
   C       -0.78774       -11.53749         3.97286
   S       -1.90583       -10.92731         2.78324
   C       -0.38338       -10.76549         5.04478
   C       -0.77347        -9.44110         5.28098
   C       -0.43589        -8.64042         6.38420
   C       -0.98558        -7.37190         6.31043
   C       -1.74666        -7.17690         5.13354
   S       -1.79492        -8.56058         4.14265
   C       -2.23950        -5.86596         5.11145
   C       -1.81715        -5.20338         6.29057
   C       -1.01325        -6.12595         7.07318
   C       -0.38249        -5.86165         8.25396
   C       -0.47588        -4.59513         8.86890
   N       -0.56247        -3.56203         9.35867
   C        0.39484        -6.83078         8.92048
   N        1.02176        -7.62599         9.45858
   C       -2.22536        -3.87840         6.33303
   C       -2.92693        -3.50343         5.18970
   S       -3.13934        -4.86102         4.08053
   C       -3.50191        -2.28906         4.78205
   C       -3.37201        -1.02101         5.28561
   C       -4.32155         0.04425         4.99303
   C       -5.23435         0.09124         3.96998
   C       -5.46803        -0.90869         3.00596
   N       -5.76424        -1.66744         2.19317
   C       -6.10763         1.17221         3.72508
   N       -6.86110         1.98967         3.43683
   C       -4.12971         1.07175         6.00433
   C       -3.00535         0.73027         6.79015
   C       -2.62746         1.51782         7.86320
   C       -3.37727         2.65106         8.14527
   C       -4.47259         2.99589         7.36666
   C       -4.86003         2.21452         6.28812
   C       -2.41734        -0.48434         6.24370
   C       -1.10773        -0.85888         6.39123
   C       -0.19512        -0.19987         7.24272
   N        0.59122         0.30583         7.90744
   C       -0.48275        -1.85602         5.61769
   N        0.07350        -2.63499         4.98311
   H       -9.24767         1.46862         4.69713
   H      -10.96244         2.82786         3.58663
   H      -12.37172         1.87748         1.81354
   H      -12.10951        -0.46924         1.11907
   H       -7.19510        -3.42729         3.70496
   H       -8.99892        -3.87959         0.23035
   H       -7.35902        -9.11666        -2.66887
   H       -5.89597       -11.28669        -2.39702
   H       -4.34682       -13.45723        -1.97345
   H       -2.57146       -14.31171        -0.31724
   H       -0.89909       -14.34704         2.12341
   H        0.24439       -13.43778         4.24273
   H        0.28426       -11.21349         5.76826
   H        0.18281        -9.00231         7.18582
   H       -2.06226        -3.21823         7.16521
   H       -4.19502        -2.40294         3.95919
   H       -1.78461         1.25332         8.48119
   H       -3.10333         3.26944         8.98636
   H       -5.04080         3.88134         7.60615
   H       -5.72129         2.49050         5.70306
*
