# ORCA input file
# SCF done       -197.993640926272          0.000756720464
! CAM-B3LYP def2-SVP def2/J RIJCOSX Grid4 TightSCF
%maxcore 5000
%tddft
    Mode sTDDFT
    Ethresh 5.0
    maxcore 5000
end

%pal
  nprocs 6
  end
* xyz 0 1
   C       -1.80218         5.14379         0.47144
   C       -2.69558         5.76941        -0.38731
   C       -3.69104         5.05141        -1.03197
   C       -3.82890         3.68518        -0.82999
   C       -2.94304         3.05192         0.02332
   C       -1.92092         3.77899         0.67370
   C       -1.12928         2.85607         1.48088
   C       -0.08547         3.20615         2.30265
   C        0.35120         4.53102         2.50726
   N        0.76155         5.58107         2.72617
   C        0.68455         2.31849         3.07930
   N        1.35849         1.65839         3.73666
   C       -1.63193         1.52197         1.21019
   C       -2.85899         1.66435         0.45466
   C       -3.88818         0.75384         0.41180
   C       -3.89055        -0.45086         1.14155
   N       -3.94569        -1.41632         1.76202
   C       -5.09820         0.96415        -0.27603
   N       -6.09534         1.06917        -0.83599
   C       -0.99232         0.35899         1.59139
   C       -1.05094        -0.92074         1.01295
   C       -0.54036        -2.01650         1.70296
   C       -0.52922        -3.31561         1.24378
   C       -1.12757        -3.66199        -0.04834
   C       -1.61588        -2.75941        -0.92694
   S       -1.63971        -1.07074        -0.64275
   C       -1.07412        -5.08222        -0.13318
   C       -0.47723        -5.60019         1.01450
   C       -0.40634        -7.01056         0.99105
   C       -0.94122        -7.51363        -0.15213
   S       -1.54515        -6.30609        -1.23874
   C       -0.08956        -4.51805         1.88467
   C        0.57429        -4.74385         3.08739
   C        1.19002        -3.82911         3.92404
   C        1.74350        -4.10357         5.16837
   C        1.71729        -5.27661         5.91561
   C        2.27269        -5.41904         7.20164
   C        2.09423        -6.65455         7.76908
   C        1.39326        -7.54973         6.94890
   S        0.96517        -6.78263         5.44313
   C        1.02692        -8.87052         7.19506
   C        1.19837        -9.63404         8.35922
   C        0.67255       -10.89516         8.26893
   C        0.07281       -11.18805         7.02622
   S        0.20377        -9.80410         5.96851
   C       -0.55399       -12.37818         6.70263
   C       -1.15102       -12.76154         5.49831
   C       -1.81589       -13.98856         5.39869
   C       -2.42672       -14.47303         4.26532
   C       -2.40671       -13.73502         3.00344
   C       -1.83778       -12.51877         2.85471
   S       -1.04858       -11.67141         4.12156
   C       -3.09719       -14.55645         2.07105
   C       -3.55158       -15.72314         2.69356
   C       -4.20835       -16.57544         1.77664
   C       -4.24232       -16.04312         0.52744
   S       -3.48451       -14.49347         0.40123
   C       -3.16394       -15.68762         4.08141
   C       -3.45006       -16.59404         5.09915
   C       -4.28956       -17.68459         5.01399
   C       -4.54387       -18.48591         6.12261
   C       -5.37213       -19.59459         6.18008
   C       -5.97919       -20.09657         7.39578
   C       -5.64405       -19.78332         8.69169
   C       -4.60411       -18.92058         9.08933
   N       -3.78091       -18.22878         9.49636
   C       -6.28962       -20.31345         9.82675
   N       -6.76651       -20.70136        10.79712
   C       -7.05559       -20.99631         6.99338
   C       -7.04070       -21.11934         5.58617
   C       -7.98313       -21.89655         4.93596
   C       -8.94191       -22.55111         5.69637
   C       -8.95248       -22.43954         7.07800
   C       -8.01104       -21.66435         7.74066
   C       -5.91278       -20.35198         5.07306
   C       -5.34937       -20.51085         3.82875
   C       -5.93059       -21.26279         2.78939
   N       -6.36410       -21.82597         1.88670
   C       -4.07211       -20.04286         3.46046
   N       -3.02122       -19.73910         3.10934
   H       -1.03500         5.71967         0.96211
   H       -2.60865         6.83208        -0.55510
   H       -4.36961         5.55878        -1.70062
   H       -4.60355         3.13508        -1.33934
   H       -0.28012         0.44384         2.40119
   H       -0.19128        -1.80868         2.70351
   H       -2.02929        -3.04141        -1.88223
   H        0.00848        -7.62137         1.77237
   H       -1.02399        -8.54286        -0.44194
   H        0.63938        -5.78807         3.36045
   H        1.29096        -2.80787         3.58789
   H        2.24461        -3.27945         5.66160
   H        2.78598        -4.60571         7.68371
   H        2.45050        -6.92805         8.74566
   H        1.68631        -9.24444         9.23430
   H        0.69999       -11.61984         9.06311
   H       -0.59443       -13.11043         7.49919
   H       -1.84006       -14.58496         6.30048
   H       -1.84627       -11.98115         1.92021
   H       -4.61256       -17.54503         1.99737
   H       -4.67232       -16.47432        -0.35530
   H       -2.98010       -16.41491         6.05835
   H       -4.81208       -17.86973         4.09048
   H       -4.12078       -18.14452         7.05739
   H       -7.98855       -21.98855         3.86197
   H       -9.68828       -23.15391         5.20174
   H       -9.70511       -22.95950         7.65100
   H       -8.03696       -21.58882         8.81515
*
