# ORCA input file
# SCF done       -167.093150286641          0.000231310069
! CAM-B3LYP def2-SVP def2/J RIJCOSX Grid4 TightSCF
%maxcore 5000
%tddft
    Mode sTDDFT
    Ethresh 5.0
    maxcore 5000
end

%pal
  nprocs 6
  end
* xyz 0 1
   C        5.83020        -1.70111        -7.16658
   C        5.81435        -0.44676        -6.63947
   C        6.21056        -0.40801        -5.28745
   C        6.52318        -1.68396        -4.82582
   S        6.33258        -2.89841        -6.03035
   C        6.93484        -1.76895        -3.46787
   C        6.97786        -0.56156        -2.76992
  Si        6.44539         0.83028        -3.90462
   C        4.85079         1.64934        -3.35765
   C        7.79986         2.08122        -4.23873
   C        7.38460        -0.75515        -1.44600
   C        7.64572        -2.07214        -1.12917
   S        7.38945        -3.12089        -2.50748
   C        8.04762        -2.61962         0.11566
   C        8.25775        -3.94854         0.42672
   C        8.61105        -4.17139         1.75736
   C        8.67727        -2.96951         2.47576
   S        8.30764        -1.59177         1.50785
   C        8.98542        -3.08984         3.84920
   C        9.17399        -4.40274         4.30878
  Si        9.00280        -5.60911         2.88918
   C        7.59613        -6.82651         3.11515
   C       10.60865        -6.47433         2.45850
   C        9.40046        -4.43987         5.67737
   C        9.39341        -3.19382         6.29432
   S        9.13434        -1.92221         5.10518
   C        9.50721        -2.86463         7.65684
   C        9.34111        -3.73302         8.70895
   C        9.41553        -3.42750        10.09050
   C        9.08220        -4.45789        10.92243
   C        8.72031        -5.64012        10.24740
   S        8.86515        -5.41134         8.51739
   C        8.25888        -6.85456        10.71977
   C        8.05056        -7.32433        12.03087
   C        7.52459        -8.58339        12.08816
   C        7.27572        -9.18194        10.82835
   S        7.77911        -8.07808         9.56238
   C        6.69347       -10.40790        10.60561
   C        6.38490       -10.98532         9.36362
   C        6.63314       -10.53477         8.07004
   C        6.13181       -11.35555         7.07109
   C        5.47837       -12.48098         7.59964
   S        5.50433       -12.50983         9.31988
   C        4.91884       -13.35788         6.64470
   C        5.08909       -12.98899         5.30277
  Si        6.04691       -11.38440         5.20207
   C        5.06371        -9.95883         4.48719
   C        7.72474       -11.55352         4.38471
   C        4.49035       -13.90965         4.44349
   C        3.87148       -14.96223         5.08897
   S        4.03071       -14.82460         6.82629
   C        3.17104       -16.04798         4.50485
   C        2.53752       -17.10121         5.13151
   C        1.93099       -18.00209         4.25048
   C        2.11527       -17.61365         2.92299
   S        3.02219       -16.16138         2.76394
   C        1.53258       -18.46312         1.94340
   C        0.85243       -19.57597         2.43106
  Si        0.93458       -19.58742         4.30019
   C        1.89330       -21.03794         4.99935
   C       -0.73829       -19.38796         5.12083
   C        0.31569       -20.33885         1.37450
   C        0.58413       -19.81705         0.14683
   S        1.50967       -18.36298         0.22529
   H        5.57656        -2.00865        -8.16212
   H        5.52710         0.42360        -7.20269
   H        4.47338         2.33748        -4.11120
   H        4.98890         2.22411        -2.44413
   H        4.06307         0.92429        -3.16301
   H        8.72771         1.60821        -4.55389
   H        8.02644         2.67198        -3.35357
   H        7.51491         2.78054        -5.02208
   H        7.48663         0.03518        -0.72275
   H        8.14359        -4.72866        -0.30579
   H        6.65542        -6.33078         3.34617
   H        7.80076        -7.51974         3.92894
   H        7.43245        -7.42507         2.22136
   H       11.43274        -5.77427         2.33629
   H       10.52645        -7.03620         1.53033
   H       10.90168        -7.18069         3.23261
   H        9.59939        -5.35137         6.20855
   H        9.67654        -1.82420         7.90111
   H        9.70097        -2.44616        10.42775
   H        9.06714        -4.38969        11.99596
   H        8.28724        -6.72597        12.89296
   H        7.29384        -9.10038        13.00346
   H        6.41397       -10.97409        11.48480
   H        7.17084        -9.63067         7.85847
   H        4.91428       -10.06977         3.41513
   H        5.57035        -9.00812         4.64022
   H        4.07827        -9.87125         4.94033
   H        8.29983       -12.38253         4.79219
   H        8.32382       -10.65449         4.51530
   H        7.63482       -11.72230         3.31359
   H        4.49575       -13.82519         3.37062
   H        2.52247       -17.20008         6.20301
   H        2.86474       -21.15554         4.52341
   H        1.35658       -21.97507         4.86720
   H        2.07195       -20.92264         6.06643
   H       -1.29720       -18.54738         4.71456
   H       -0.64236       -19.22066         6.19164
   H       -1.35576       -20.27461         4.99260
   H       -0.25025       -21.24239         1.51795
   H        0.29597       -20.19410        -0.81488
*
