# ORCA input file
# SCF done       -219.506509481481          0.000915921001
! CAM-B3LYP def2-SVP def2/J RIJCOSX Grid4 TightSCF
%maxcore 5000
%tddft
    Mode sTDDFT
    Ethresh 5.0
    maxcore 5000
end

%pal
  nprocs 6
  end
* xyz 0 1
   C        0.66911         2.71271         2.46543
   C        1.06635         1.52863         3.02954
   C        2.41092         1.10991         3.12049
   N        3.48323         0.71295         3.22043
   C        0.21258         0.57386         3.62168
   N       -0.41292        -0.24270         4.13214
   C        1.56297         3.72257         1.90691
   C        0.79216         4.84453         1.51257
   C        1.34586         5.96811         0.94853
   C        2.73143         5.98509         0.75913
   C        3.49507         4.85977         1.15268
   C        2.93339         3.72517         1.72635
   S        5.18509         5.08878         0.82432
   C        4.84877         6.67063         0.17220
   C        3.53819         7.01208         0.19822
  Br        6.25756         7.72061        -0.48218
   C       -0.62521         4.57842         1.80017
   O       -1.55672         5.34174         1.60659
   C       -0.68715         3.21919         2.34719
   C       -1.83675         2.52215         2.61694
   C       -3.18005         2.91619         2.51461
   C       -4.23137         2.01955         2.74497
   C       -5.47196         2.60443         2.58137
   C       -5.37483         3.97645         2.24461
   S       -3.77067         4.52580         2.09929
   C       -6.68819         4.47832         2.08237
   C       -7.61026         3.43933         2.30391
   C       -6.87626         2.22769         2.63385
   C       -7.39994         1.00206         2.92093
   C       -6.58907        -0.11397         3.21930
   N       -5.93456        -1.02479         3.45500
   C       -8.79195         0.77126         2.93528
   N       -9.92362         0.58826         2.94372
   C       -8.93382         3.84134         2.13294
   C       -9.02545         5.17953         1.79204
   S       -7.45208         5.95381         1.68491
   C      -10.19970         5.92019         1.50448
   C      -10.29804         7.27732         1.25512
   C      -11.60574         7.65874         0.95983
   C      -12.50775         6.58031         0.97792
   S      -11.75164         5.10339         1.37971
   C      -13.79257         7.05999         0.61888
   C      -13.70491         8.44336         0.38317
   C      -12.33091         8.86790         0.60220
   C      -11.82897        10.13072         0.49287
   C      -10.46779        10.41875         0.72903
   N       -9.36226        10.65287         0.92179
   C      -12.63987        11.23050         0.14007
   N      -13.29908        12.12326        -0.14709
   C      -14.91566         9.00301        -0.02113
   C      -15.92035         8.05547        -0.10416
   S      -15.36315         6.44950         0.34518
   C      -17.25487         8.24939        -0.54052
   C      -18.23269         7.28468        -0.71267
   C      -19.41277         7.82601        -1.21789
   C      -19.33492         9.21493        -1.42515
   S      -17.80936         9.85253        -0.99603
   C      -20.56033         9.66194        -1.97745
   C      -21.41398         8.54861        -2.12060
   C      -20.72159         7.36165        -1.65184
   C      -21.18906         6.08067        -1.66782
   C      -20.41942         4.99513        -1.19948
   N      -19.78984         4.11886        -0.81223
   C      -22.47447         5.77463        -2.16296
   N      -23.52258         5.54412        -2.56624
   C      -22.62497         8.86966        -2.71885
   C      -22.71116        10.21667        -3.03971
   S      -21.26998        11.09921        -2.54514
   C      -23.77225        10.91411        -3.65730
   C      -24.78302        10.41850        -4.42352
   C      -25.00159         9.14751        -5.08317
   C      -24.04530         8.29668        -5.57483
   C      -24.33467         7.14165        -6.33206
   N      -24.51231         6.19612        -6.95718
   C      -22.65836         8.51946        -5.47795
   N      -21.51953         8.66539        -5.45416
   C      -26.42473         9.06349        -5.39571
   C      -27.01889        10.33045        -5.16597
   C      -26.00240        11.25245        -4.62591
   O      -26.12514        12.42452        -4.35594
   C      -28.34636        10.57823        -5.41931
   C      -29.12473         9.52435        -5.90968
   C      -28.52592         8.25740        -6.11469
   C      -27.18174         8.00798        -5.86626
   S      -29.67213         7.09734        -6.71085
   C      -30.92194         8.31300        -6.68522
   C      -30.50522         9.52568        -6.24884
  Br      -32.65778         7.86668        -7.23509
   H        0.72997         6.80561         0.66073
   H        3.55930         2.89432         2.00528
   H        3.15481         7.94862        -0.16350
   H       -1.72309         1.49362         2.93805
   H       -4.05857         0.99167         3.01128
   H       -9.79566         3.20821         2.24539
   H       -9.45047         7.93818         1.28764
   H      -15.07173        10.03978        -0.25980
   H      -18.07271         6.24515        -0.48867
   H      -23.42891         8.17611        -2.88608
   H      -23.83126        11.97983        -3.45751
   H      -28.77155        11.55427        -5.24608
   H      -26.76983         7.02562        -6.02784
   H      -31.14351        10.38657        -6.16926
*
