# ORCA input file
# SCF done       -194.733345854787          0.000973602412
! CAM-B3LYP def2-SVP def2/J RIJCOSX Grid4 TightSCF
%maxcore 5000
%tddft
    Mode sTDDFT
    Ethresh 5.0
    maxcore 5000
end

%pal
  nprocs 6
  end
* xyz 0 1
   C        1.60521        -1.57771         2.44161
   C        0.98115        -1.33955         1.24317
   C        1.43131        -0.40132         0.29128
   N        1.75883         0.33357        -0.52673
   C       -0.23280        -1.94032         0.85757
   N       -1.24142        -2.37154         0.51800
   C        2.70940        -0.78982         2.98693
   C        2.77703        -1.00363         4.37630
   C        3.70877        -0.35736         5.16220
   C        4.60209         0.51135         4.54607
   C        4.55149         0.71481         3.16184
   C        3.60341         0.07001         2.37360
  Cl        5.67445         1.77442         2.41425
  Cl        5.77610         1.33336         5.49030
   C        1.75131        -1.99271         4.77305
   O        1.48084        -2.38332         5.88398
   C        1.14987        -2.45637         3.49309
   C        0.37041        -3.57964         3.49193
   C        0.02191        -4.40882         2.41248
   S       -1.38894        -5.42926         2.52713
   C       -1.19788        -6.05654         0.91706
   C       -0.05178        -5.52236         0.34502
   C        0.64943        -4.61113         1.17784
   C        1.84541        -4.16364         0.57198
   C        2.00601        -4.67270        -0.68346
   C        3.12874        -4.37788        -1.58307
   O        4.05710        -3.66772        -1.28751
   O        2.98079        -4.99481        -2.75684
   C        4.00353        -4.77540        -3.71780
   S        0.72865        -5.74225        -1.18607
   C       -2.11320        -6.97681         0.35726
   C       -2.05823        -7.55010        -0.90469
   C       -3.11017        -8.43583        -1.11635
   C       -3.97687        -8.53738        -0.01129
   S       -3.49507        -7.53839         1.28531
   C       -4.99473        -9.47273        -0.32077
   C       -4.77257        -9.96355        -1.61968
   C       -3.58414        -9.32737        -2.16420
   C       -3.02689        -9.53299        -3.39168
   C       -1.85286        -8.86870        -3.80673
   N       -0.89692        -8.33677        -4.14902
   C       -3.58863       -10.43544        -4.31984
   N       -4.05620       -11.16870        -5.06715
   C       -5.70749       -10.92041        -2.01196
   C       -6.64827       -11.16687        -1.02650
   S       -6.35909       -10.18671         0.41135
   C       -7.73109       -12.08776        -1.01435
   C       -8.33362       -12.79151        -2.05820
   C       -7.98010       -12.69676        -3.50829
   C       -6.92473       -13.73896        -3.88909
   C       -9.34883       -13.63390        -1.60685
   C       -9.56764       -13.59515        -0.23915
   S       -8.48277       -12.45836         0.51027
   C      -10.51439       -14.29674         0.53500
   C      -11.24478       -15.35405         0.07431
   C      -12.23386       -15.96990         0.85574
   C      -13.06913       -17.00814         0.53612
   C      -13.80844       -17.66272         1.64343
   O      -13.92119       -17.26432         2.77976
   C      -14.33402       -18.92469         1.07546
   C      -14.99972       -19.94461         1.72033
   C      -15.35160       -21.07327         0.97800
   C      -15.01818       -21.15001        -0.38738
   C      -14.35211       -20.10484        -1.03152
   C      -14.01637       -18.98171        -0.29505
   C      -13.34271       -17.73449        -0.68183
   C      -13.20042       -17.32105        -1.98200
   C      -12.75046       -16.05898        -2.42033
   N      -12.41427       -15.05956        -2.87589
   C      -13.57429       -18.09907        -3.10047
   N      -13.84094       -18.68111        -4.05285
   C      -15.35911       -22.31265        -1.12211
   N      -15.62611       -23.25136        -1.72058
   C      -16.03278       -22.14592         1.60185
   N      -16.58455       -23.00172         2.12577
   H        3.74216        -0.52374         6.22725
   H        3.59537         0.24099         1.30927
   H        0.01711        -3.89088         4.47042
   H        2.58066        -3.52592         1.02589
   H        3.72503        -5.35795        -4.59165
   H        4.96771        -5.10385        -3.32467
   H        4.06698        -3.71394        -3.96504
   H       -1.28587        -7.32689        -1.61696
   H       -5.67868       -11.43051        -2.95437
   H       -7.62620       -11.69355        -3.74722
   H       -8.88250       -12.88122        -4.09373
   H       -6.04070       -13.65139        -3.26124
   H       -6.62662       -13.60679        -4.92544
   H       -7.32717       -14.74169        -3.76757
   H       -9.95109       -14.22765        -2.27171
   H      -10.66224       -13.95818         1.55270
   H      -11.04264       -15.73248        -0.91346
   H      -12.33115       -15.62660         1.88161
   H      -15.23804       -19.87290         2.77064
   H      -14.10827       -20.20709        -2.07681
*
