# ORCA input file
# SCF done       -218.561757716945          0.000705839318
! CAM-B3LYP def2-SVP def2/J RIJCOSX Grid4 TightSCF
%maxcore 5000
%tddft
    Mode sTDDFT
    Ethresh 5.0
    maxcore 5000
end

%pal
  nprocs 6
  end
* xyz 0 1
   C        5.97888        -2.49018         2.54384
   C        5.84146        -2.29484         1.20432
   C        5.39483        -0.98934         0.91941
   C        5.20528        -0.22376         2.07606
   S        5.57153        -1.09737         3.49516
   C        4.75550         1.07474         1.69649
   C        4.66685         1.11677         0.30013
   C        5.06373        -0.17926        -0.23603
   C        5.10691        -0.54137        -1.55214
   C        4.75350         0.35203        -2.58367
   N        4.46724         1.08032        -3.42290
   C        5.50387        -1.82844        -1.96844
   N        5.82526        -2.87376        -2.31400
   C        4.23105         2.35259        -0.18164
   C        3.98659         3.24954         0.84040
   S        4.30096         2.55501         2.41862
   C        3.52546         4.59246         0.71558
   C        3.27983         5.25883        -0.45349
   C        2.81107         6.58656        -0.27280
   C        2.70999         6.89921         1.10792
   S        3.19761         5.57445         2.12508
   C        2.26851         8.10117         1.64623
   O        2.27384         8.12510         3.00519
   C        1.98558         9.30128         3.72148
   C        1.87815         9.09601         0.73143
   C        1.99534         8.78902        -0.64750
   C        2.44467         7.58975        -1.18677
   O        2.44912         7.57195        -2.54622
   C        2.90329         6.45639        -3.27037
   S        1.48143        10.09579        -1.66678
   C        1.10504        11.06465        -0.25748
   C        1.34635        10.40499         0.90897
   C        0.48482        12.34676        -0.45415
   S       -0.84576        12.37354        -1.55650
   C       -1.20400        14.03554        -1.24639
   C       -0.29875        14.55842        -0.31332
   C        0.69532        13.60410         0.10769
   C        1.75718        14.06219         0.94256
   C        2.97176        13.24545         1.26147
   F        3.39054        12.46467         0.25625
   F        4.02719        14.01851         1.57543
   F        2.81193        12.43353         2.33402
   C        1.72125        15.34195         1.43077
   C        0.69134        16.23428         1.11140
   C       -0.29764        15.87905         0.22551
   O       -1.28784        16.70643        -0.17744
   C       -1.33188        18.01994         0.33408
   C       -2.26642        14.67700        -1.93163
   C       -3.07938        14.03843        -2.80716
   C       -4.11078        14.65428        -3.56549
   C       -4.48412        15.96681        -3.65758
   C       -5.53589        16.20442        -4.57045
   C       -5.99893        15.01803        -5.19890
   S       -5.08439        13.64289        -4.61481
   C       -7.01633        15.05059        -6.13827
   O       -7.58173        14.02267        -6.82273
   C       -7.16460        12.69880        -6.58809
   C       -7.54523        16.32054        -6.44695
   C       -7.08099        17.50822        -5.82376
   C       -6.07793        17.47362        -4.86995
   O       -5.52587        18.50149        -4.17307
   C       -5.94920        19.82378        -4.40743
   S       -7.94790        18.89588        -6.46443
   C       -8.88718        17.87915        -7.53805
   C       -8.56047        16.56232        -7.40026
   C       -9.83740        18.46032        -8.42069
   C      -10.12708        19.79898        -8.58843
   C      -11.10587        20.00278        -9.56489
   C      -11.56181        18.80988       -10.13741
   S      -10.79076        17.43402        -9.48098
   C      -12.54565        19.12653       -11.11773
   C      -12.70316        20.51649       -11.16032
   C      -11.80804        21.11760       -10.19030
   C      -11.64662        22.44540        -9.91809
   C      -12.37730        23.44517       -10.59275
   N      -12.96753        24.26324       -11.13859
   C      -10.73682        22.90863        -8.94528
   N       -9.99938        23.29243        -8.15480
   C      -13.66192        20.91971       -12.11066
   C      -14.20102        19.84971       -12.75598
   S      -13.56233        18.32521       -12.22976
   H        6.29939        -3.37843         3.05008
   H        6.04895        -3.04754         0.46580
   H        4.09481         2.58765        -1.22045
   H        3.43548         4.78838        -1.40388
   H        2.21308         9.06384         4.76040
   H        0.92724         9.56730         3.64164
   H        2.60943        10.13695         3.39766
   H        2.83101         6.74900        -4.31750
   H        2.26937         5.58116        -3.10077
   H        3.94524         6.22068        -3.03622
   H        1.10664        10.84493         1.85695
   H        2.51767        15.69214         2.06885
   H        0.72097        17.21743         1.54912
   H       -2.20243        18.48331        -0.12744
   H       -0.43474        18.58448         0.06444
   H       -1.45492        18.02205         1.42078
   H       -2.40111        15.72756        -1.73674
   H       -2.94362        12.97660        -2.97250
   H       -4.01984        16.76233        -3.10608
   H       -7.79091        12.08303        -7.23226
   H       -7.31907        12.40426        -5.54692
   H       -6.11565        12.55036        -6.85695
   H       -5.35117        20.43980        -3.73707
   H       -7.00775        19.95890        -4.17143
   H       -5.76379        20.13130        -5.43963
   H       -9.01964        15.77293        -7.96703
   H       -9.63901        20.57268        -8.02330
   H      -13.93975        21.93865       -12.30900
   H      -14.94867        19.85177       -13.52356
*
