# ORCA input file
# SCF done       -171.730666070525          0.000631088147
! CAM-B3LYP def2-SVP def2/J RIJCOSX Grid4 TightSCF
%maxcore 5000
%tddft
    Mode sTDDFT
    Ethresh 5.0
    maxcore 5000
end

%pal
  nprocs 6
  end
* xyz 0 1
   C       -2.17750         2.61068       -11.21901
   C       -1.19769         2.25578       -10.34645
   C       -1.14265         3.12982        -9.24249
   C       -2.11760         4.15192        -9.32010
   S       -3.07499         4.02063       -10.73585
   C       -1.99672         4.98272        -8.19665
   C       -0.93570         4.49044        -7.39417
   C       -0.37738         3.30346        -8.04151
   C        0.66247         2.53552        -7.57923
   C        1.33233         2.81735        -6.37506
   N        1.88666         3.03568        -5.39297
   C        1.12669         1.40782        -8.28118
   N        1.50986         0.48414        -8.84548
   C       -0.70509         5.23783        -6.26308
   C       -1.57705         6.33571        -6.15550
   S       -2.71105         6.38642        -7.51918
   C       -1.63949         7.34220        -5.20361
   C       -0.80972         7.53903        -4.10349
   C       -0.85923         8.63900        -3.23546
   C        0.12564         8.64296        -2.27085
   C        0.97158         7.53772        -2.33679
   S        0.49925         6.47886        -3.63274
   C        2.12134         7.24989        -1.57531
   C        2.79924         8.06295        -0.67602
   C        3.98074         7.50266        -0.21367
   C        4.23553         6.23494        -0.71758
   S        2.95791         5.73749        -1.79110
   C        5.38489         5.43351        -0.52784
   C        5.47832         4.14487        -0.94564
   C        6.66040         3.37323        -0.98325
   C        6.76742         2.03781        -1.33590
   C        8.07666         1.59373        -1.45993
   C        9.01798         2.58226        -1.22079
   S        8.24342         4.07155        -0.76073
   C       10.41022         2.52157        -1.47165
   C       11.11402         1.47435        -2.04469
   C       12.41836         1.80745        -2.38355
   C       12.76470         3.10946        -2.06290
   S       11.43068         3.91887        -1.28328
   C       13.95012         3.78503        -2.43002
   C       14.32623         5.01868        -2.00706
   C       15.39478         5.74708        -2.58155
   C       15.98564         6.91595        -2.12464
   C       16.94249         7.43425        -2.98555
   C       17.09167         6.69276        -4.15004
   S       16.05940         5.29043        -4.12482
   C       17.85409         6.98848        -5.29801
   C       18.80213         7.99000        -5.49361
   C       19.28530         8.04430        -6.78409
   C       18.71722         7.10048        -7.65098
   S       17.58360         6.10235        -6.76950
   C       18.97527         6.99957        -9.01555
   C       18.36447         6.17058        -9.94405
   C       17.34994         5.21087        -9.77792
   C       16.97289         4.63113       -10.96632
   C       17.68708         5.11842       -12.09102
   S       18.84042         6.30749       -11.64804
   C       17.20173         4.46614       -13.23359
   C       16.18184         3.56404       -12.84914
   C       16.00625         3.63472       -11.42729
   C       15.12343         2.93244       -10.64460
   C       14.22669         1.99489       -11.18931
   N       13.49182         1.22876       -11.62673
   C       15.05433         3.09873        -9.24966
   N       14.98934         3.22473        -8.10993
   C       15.63901         2.87250       -13.95043
   C       16.23014         3.24326       -15.11674
   S       17.47138         4.44753       -14.92636
   H       -2.44467         2.13104       -12.13939
   H       -0.54809         1.41135       -10.48933
   H        0.05509         5.01986        -5.53722
   H       -2.40468         8.09458        -5.34843
   H       -1.59945         9.41209        -3.34272
   H        0.24160         9.41597        -1.53281
   H        2.44971         9.04123        -0.39920
   H        4.65070         7.99467         0.46918
   H        6.23548         5.90750        -0.05441
   H        4.59390         3.65829        -1.33933
   H        5.90511         1.42100        -1.51632
   H        8.34279         0.59231        -1.74485
   H       10.67326         0.51400        -2.24029
   H       13.10210         1.13461        -2.86972
   H       14.57135         3.27013        -3.15323
   H       13.77376         5.50733        -1.21447
   H       15.71448         7.36878        -1.18728
   H       17.49266         8.33868        -2.79784
   H       19.11917         8.64747        -4.70431
   H       20.01914         8.75440        -7.12219
   H       19.72248         7.68331        -9.39859
   H       16.92034         4.97128        -8.82385
   H       14.85361         2.14153       -13.88499
   H       16.01921         2.88515       -16.10457
*
