# ORCA input file
# SCF done       -179.483311258511          0.000335354663
! CAM-B3LYP def2-SVP def2/J RIJCOSX Grid4 TightSCF
%maxcore 5000
%tddft
    Mode sTDDFT
    Ethresh 5.0
    maxcore 5000
end

%pal
  nprocs 6
  end
* xyz 0 1
   C       -7.73841        -0.12324        -0.47240
   C       -6.58465        -0.59576         0.07446
   C       -5.57711         0.38816         0.07302
   C       -6.01047         1.59634        -0.48460
   S       -7.63472         1.52415        -1.00106
   C       -4.93357         2.53054        -0.44087
   C       -3.82864         1.90180         0.14165
   C       -4.19606         0.53593         0.49291
   C       -3.40425        -0.38962         1.10845
   C       -2.08126        -0.09152         1.49480
   N       -1.01040         0.16539         1.81623
   C       -3.85773        -1.69047         1.41040
   N       -4.22115        -2.74972         1.65684
   C       -2.70472         2.72857         0.22640
   C       -2.94980         3.99025        -0.27793
   S       -4.59835         4.14492        -0.87782
   C       -2.08275         5.11770        -0.36322
   S       -2.53893         6.45394        -1.37579
   C       -1.10404         7.34523        -0.95480
   C       -0.32000         6.61287        -0.07964
   C       -0.87171         5.36184         0.25981
   C       -0.21005         4.41352         1.21136
   C        0.93020         5.08809         1.98810
   C        0.39294         5.96257         3.00580
   N       -0.03826         6.66423         3.79779
   C        1.81182         5.90874         1.02338
   C        2.27538         5.06000        -0.05141
   N        2.62353         4.39074        -0.90917
   C        0.99995         7.07872         0.45109
   C       -0.89514         8.66691        -1.44867
   S        0.12687         9.77596        -0.58124
   C       -0.19864        11.06569        -1.70275
   C       -1.05827        10.63286        -2.69715
   C       -1.45426         9.28960        -2.55082
   C       -2.38518         8.61280        -3.50728
   C       -2.51708         9.40025        -4.81820
   C       -1.31184         9.26290        -5.60468
   N       -0.35258         9.16040        -6.21648
   C       -2.76459        10.89300        -4.51442
   C       -3.92910        11.02469        -3.66789
   N       -4.84322        11.12094        -2.98958
   C       -1.53637        11.49810        -3.82064
   C        0.44340        12.33018        -1.55034
   S        0.66512        13.38715        -2.91572
   C        1.53461        14.54683        -1.95750
   C        1.63596        14.12438        -0.64380
   C        1.01552        12.88031        -0.41584
   C        0.97206        12.24087         0.93702
   C        1.28935        13.25786         2.04180
   C        0.19106        14.18727         2.18456
   N       -0.67845        14.92224         2.27745
   C        2.57698        14.02894         1.68304
   C        3.64824        13.08763         1.44766
   N        4.48532        12.33565         1.24936
   C        2.34181        14.88930         0.43286
   C        2.02734        15.72811        -2.58356
   C        2.50229        16.89235        -2.01319
   C        2.90992        17.82035        -2.97568
   C        2.73419        17.36848        -4.28733
   S        2.07662        15.79547        -4.34266
   C        3.17045        18.39386        -5.17767
   C        3.62039        19.48156        -4.42071
   C        3.48114        19.16060        -3.01254
   C        3.82888        19.92932        -1.93985
   C        4.38165        21.21894        -2.08229
   N        4.83008        22.26851        -2.19248
   C        3.66855        19.46881        -0.61670
   N        3.54495        19.07923         0.45525
   C        4.07617        20.54451        -5.22422
   C        3.96392        20.24738        -6.54808
   S        3.30514        18.67387        -6.85505
   H       -8.66535        -0.64451        -0.60348
   H       -6.46842        -1.59404         0.45495
   H       -1.75555         2.40433         0.60344
   H        0.20712         3.56933         0.65242
   H       -0.94829         4.02098         1.91628
   H        1.53084         4.31804         2.48705
   H        2.68964         6.29842         1.55253
   H        1.57050         7.56890        -0.34259
   H        0.83754         7.81511         1.24543
   H       -3.37610         8.52563        -3.04843
   H       -2.03127         7.60033        -3.72116
   H       -3.35061         8.99268        -5.40310
   H       -2.96001        11.43856        -5.44562
   H       -1.78078        12.49632        -3.44665
   H       -0.73482        11.60973        -4.55895
   H        1.70714        11.43031         0.98430
   H       -0.01455        11.80319         1.11247
   H        1.41691        12.73214         2.99561
   H        2.87406        14.67762         2.51589
   H        3.30135        15.25644         0.05804
   H        1.73644        15.75527         0.72048
   H        2.52195        17.08253        -0.95888
   H        4.46416        21.47461        -4.85108
   H        4.23054        20.86177        -7.38446
*
