# ORCA input file
# SCF done       -236.321372453783          0.000935045742
! CAM-B3LYP def2-SVP def2/J RIJCOSX Grid4 TightSCF
%maxcore 5000
%tddft
    Mode sTDDFT
    Ethresh 5.0
    maxcore 5000
end

%pal
  nprocs 6
  end
* xyz 0 1
   C        3.37219         1.60582         0.32512
   C        2.82617         1.19231         1.51000
   C        3.52901         0.46091         2.48738
   N        4.06294        -0.09898         3.33591
   C        1.49111         1.43971         1.88522
   N        0.40016         1.57370         2.21777
   C        4.64884         1.16901        -0.22172
   C        4.65959         1.43160        -1.62351
   C        5.72328         1.09107        -2.40854
   C        6.84577         0.46932        -1.81671
   C        6.84757         0.21913        -0.41369
   C        5.73051         0.57818         0.37422
   C        7.97736        -0.39539         0.16426
   C        9.05271        -0.74913        -0.60394
   C        9.04929        -0.50366        -1.98529
   C        7.96946         0.09204        -2.57831
   C        3.40772         2.10835        -2.00418
   O        3.03455         2.43403        -3.10656
   C        2.70479         2.36978        -0.71273
   C        1.74897         3.32580        -0.66617
   C        1.15600         3.97194         0.45845
   S       -0.51825         4.41274         0.30765
   C        1.66491         4.33761         1.69740
   C        3.08681         4.22575         2.08478
   O        3.98250         3.89862         1.32051
   C        3.31007         4.54451         3.48021
   C        4.45920         4.41954         4.23309
   N        4.19086         4.81777         5.49722
   C        5.15164         4.88416         6.56942
   C        5.84436         6.24504         6.60026
   C        2.89940         5.21926         5.58165
   C        2.30674         5.05842         4.34907
   C        0.94459         5.34624         3.93002
   O        0.11925         5.87249         4.65889
   C        0.68081         4.92465         2.54158
   C       -0.56924         5.01608         1.93589
   C       -1.77194         5.47723         2.52243
   C       -2.95960         5.56841         1.87784
   C       -4.16794         5.96745         2.49948
   C       -5.41051         6.09782         1.89857
   C       -6.39859         6.46743         2.80887
   C       -5.90088         6.61595         4.11666
   S       -4.22657         6.31587         4.22238
   C       -6.97791         6.95483         4.97304
   C       -8.15683         7.02467         4.20878
   C       -7.83215         6.72226         2.82425
   C       -8.68969         6.67468         1.76510
   C       -8.24844         6.38300         0.45706
   N       -7.89529         6.14853        -0.60832
   C      -10.07844         6.89298         1.89353
   N      -11.21262         7.04145         1.96982
   C       -9.28116         7.34838         4.96639
   C       -8.97155         7.52489         6.30142
   S       -7.25569         7.27588         6.62089
   C       -9.82468         7.78318         7.41218
   S       -9.30617         7.21040         8.96743
   C      -11.07186         8.39808         7.48446
   C      -11.71571         9.12649         6.37038
   O      -11.17859         9.34976         5.29952
   C      -13.04833         9.59498         6.70723
   C      -13.98370        10.21250         5.90586
   N      -15.08746        10.46672         6.64795
   C      -16.26162        11.15681         6.17614
   C      -16.11414        12.66740         6.34621
   C      -14.88565        10.04779         7.91889
   C      -13.62823         9.48861         8.00284
   C      -12.95012         8.90589         9.14583
   O      -13.43253         8.86067        10.26433
   C      -11.61658         8.36522         8.79800
   C      -10.77500         7.76020         9.72686
   C      -10.98656         7.56957        11.11199
   C      -10.07986         6.96711        11.92793
   C      -10.30780         6.78237        13.30847
   C       -9.42598         6.17598        14.16062
   C       -9.60115         5.95228        15.58364
   C      -10.67446         6.32197        16.35314
   C      -10.78105         6.06750        17.73660
   N      -10.93739         5.89344        18.86069
   C      -11.82339         7.00435        15.90130
   N      -12.79232         7.55815        15.63002
   C       -8.41714         5.25367        16.07517
   C       -7.52254         5.05267        14.98649
   C       -8.10723         5.61850        13.75890
   O       -7.60012         5.61808        12.65586
   C       -6.32329         4.41980        15.14172
   C       -5.95454         3.94723        16.42081
   C       -6.84244         4.14503        17.51706
   C       -8.07788         4.80527        17.32451
   C       -6.46530         3.66964        18.78963
   C       -5.27032         3.02858        18.97187
   C       -4.39723         2.83375        17.89120
   C       -4.73191         3.28379        16.64293
   H        5.71018         1.29393        -3.46918
   H        5.76069         0.38904         1.43586
   H        7.97379        -0.58549         1.22763
   H        9.91232        -1.22100        -0.15182
   H        9.90655        -0.78879        -2.57664
   H        7.96138         0.28340        -3.64140
   H        1.38332         3.65463        -1.63551
   H        5.42502         4.05797         3.94035
   H        5.88919         4.09107         6.42351
   H        4.63073         4.70794         7.51390
   H        6.36672         6.42547         5.66380
   H        6.56388         6.27719         7.41331
   H        5.11510         7.03800         6.74736
   H        2.47249         5.57751         6.49723
   H       -1.69661         5.75438         3.56636
   H       -3.02680         5.31495         0.82665
   H       -5.56954         5.92425         0.84968
   H      -10.27524         7.44935         4.57477
   H      -13.92511        10.45945         4.86447
   H      -17.12572        10.79890         6.74150
   H      -16.40744        10.91186         5.12101
   H      -15.97884        12.91934         7.39522
   H      -17.00318        13.17101         5.97788
   H      -15.25237        13.02814         5.79002
   H      -15.63092        10.15595         8.68173
   H      -11.92877         7.93327        11.50245
   H       -9.14443         6.60980        11.51770
   H      -11.25007         7.14931        13.69517
   H       -5.66457         4.28109        14.29719
   H       -8.72576         4.93758        18.17615
   H       -7.14080         3.82183        19.61869
   H       -4.99103         2.66747        19.95042
   H       -3.45845         2.32520        18.05289
   H       -4.06400         3.13697        15.80664
*
