# ORCA input file
# SCF done       -239.317997195534          0.000512379899
! CAM-B3LYP def2-SVP def2/J RIJCOSX Grid4 TightSCF
%maxcore 5000
%tddft
    Mode sTDDFT
    Ethresh 5.0
    maxcore 5000
end

%pal
  nprocs 6
  end
* xyz 0 1
   C        3.52657         5.44141        -3.62949
   C        4.59563         6.02170        -2.99768
   C        5.94318         5.73462        -3.30104
   N        7.05729         5.54837        -3.50574
   C        4.51832         6.95951        -1.94610
   N        4.55062         7.71219        -1.07917
   C        3.61132         4.40484        -4.64964
   C        2.30099         3.97547        -4.96785
   C        2.04497         2.99372        -5.89397
   C        3.13744         2.40169        -6.53521
   C        4.44485         2.83959        -6.21452
   C        4.70252         3.83532        -5.28108
   S        5.64818         1.97738        -7.12508
   C        4.39628         1.05086        -7.90924
   C        3.14121         1.37012        -7.51354
  Br        4.86419        -0.25019        -9.17647
   C        1.31821         4.73270        -4.16611
   O        0.11407         4.62437        -4.24061
   C        2.11881         5.68129        -3.34781
   C        1.64208         6.72809        -2.61838
   C        0.30005         6.99856        -2.19071
   C       -0.06231         8.34327        -1.97541
   C       -1.33460         8.64458        -1.56665
   C       -2.26878         7.61757        -1.32881
   C       -1.90611         6.28646        -1.48547
   C       -0.63095         5.98563        -1.91456
   C       -3.51382         8.21795        -0.90962
   C       -3.34950         9.61399        -0.87185
   C       -1.95175         9.99750        -1.29839
   C       -1.20311        10.74768        -0.18144
   C       -1.13426         9.95653         1.11917
   C       -1.97770        10.86079        -2.57442
   C       -2.70692        10.18741        -3.73101
   C       -4.38693        10.42675        -0.48657
   C       -5.63009         9.86286        -0.15839
   C       -5.77672         8.46914        -0.20484
   C       -4.73239         7.64588        -0.56958
   C       -6.71422        10.73964         0.21930
   C       -8.02110        10.41257         0.20544
   C       -9.08758        11.28048         0.57849
   O      -10.36406        10.83004         0.35586
   C      -11.17875        11.78921         0.77769
   C      -10.46185        12.87936         1.29312
   C       -9.10919        12.54540         1.15793
   C      -11.38970        13.90933         1.75498
   S      -11.03709        15.34449         2.43571
   C      -12.70609        13.34931         1.46123
   C      -12.56480        12.08334         0.87440
   O      -13.74373        11.55179         0.57255
   C      -14.68831        12.46681         0.96048
   C      -14.08499        13.58930         1.51792
   C      -16.06880        12.19234         0.73555
   C      -16.50234        11.08255         0.10333
   C      -17.86478        10.73035        -0.20827
   C      -18.08593         9.61231        -1.02948
   C      -19.36567         9.25982        -1.37578
   C      -20.46343        10.00074        -0.90254
   C      -20.26026        11.09941        -0.07738
   C      -18.97055        11.45526         0.25897
   C      -21.67442         9.41643        -1.43287
   C      -21.32432         8.31416        -2.23454
   C      -19.82697         8.12335        -2.25657
   C      -19.26972         8.25916        -3.68653
   C      -19.65471         9.57514        -4.35176
   C      -19.42268         6.75757        -1.67088
   C      -19.93257         6.54925        -0.24989
   C      -22.28985         7.59462        -2.88854
   C      -23.64114         7.96725        -2.77071
   C      -23.97527         9.05609        -1.95044
   C      -23.00804         9.77745        -1.28428
   C      -24.60347         7.25776        -3.56413
   C      -25.93882         7.47526        -3.63279
   C      -26.82416         6.76335        -4.48170
   C      -26.58575         6.10020        -5.65023
   C      -25.47017         6.06311        -6.57233
   C      -24.54814         7.05189        -6.80650
   C      -23.52593         6.96526        -7.77267
   N      -22.65463         6.93981        -8.52032
   C      -24.53654         8.30485        -6.16238
   N      -24.48467         9.35715        -5.70659
   C      -25.64176         4.88092        -7.41426
   C      -26.93093         4.33988        -7.18403
   C      -27.60169         5.12392        -6.12762
   O      -28.72624         4.98248        -5.70311
   C      -27.40707         3.24850        -7.86876
   C      -26.56714         2.65583        -8.81766
   C      -25.27413         3.19167        -9.02617
   C      -24.79497         4.30019        -8.33903
   S      -24.39950         2.29985       -10.23416
   C      -25.76669         1.23824       -10.44534
   C      -26.82292         1.53209        -9.65087
  Br      -25.66839        -0.15815       -11.69390
   H        1.03322         2.68994        -6.11267
   H        5.71612         4.13666        -5.07663
   H        2.25353         0.89886        -7.89424
   H        2.35672         7.49387        -2.33785
   H        0.66340         9.12262        -2.15962
   H       -2.60884         5.49569        -1.27194
   H       -0.33447         4.95493        -2.00943
   H       -1.70839        11.69877        -0.00117
   H       -0.19058        10.96807        -0.52533
   H       -2.13331         9.73776         1.49010
   H       -0.60337        10.52883         1.87609
   H       -0.60966         9.01541         0.97008
   H       -0.94905        11.07681        -2.87045
   H       -2.46485        11.81034        -2.34317
   H       -2.23126         9.24420        -3.99076
   H       -2.69285        10.83192        -4.60687
   H       -3.74340         9.98727        -3.46825
   H       -4.26651        11.50008        -0.44960
   H       -6.72113         8.02821         0.07380
   H       -4.86137         6.57414        -0.58985
   H       -6.43050        11.74547         0.49822
   H       -8.34307         9.43811        -0.13338
   H       -8.25753        13.12698         1.44311
   H      -14.59110        14.45156         1.90048
   H      -16.74754        12.95363         1.08833
   H      -15.75328        10.37952        -0.23870
   H      -17.23930         9.04639        -1.39144
   H      -21.09838        11.67036         0.29346
   H      -18.81115        12.30750         0.90106
   H      -19.64278         7.42780        -4.28835
   H      -18.18147         8.17810        -3.64499
   H      -20.73555         9.66488        -4.43604
   H      -19.22928         9.62502        -5.35120
   H      -19.28334        10.42047        -3.77642
   H      -18.33337         6.68258        -1.67977
   H      -19.81631         5.96987        -2.31679
   H      -19.53549         7.31170         0.41660
   H      -19.62302         5.57427         0.11947
   H      -21.01888         6.59978        -0.21959
   H      -22.02378         6.75531        -3.51595
   H      -25.00902         9.34608        -1.84978
   H      -23.28323        10.61894        -0.66646
   H      -24.19145         6.45565        -4.16636
   H      -26.40367         8.18488        -2.96334
   H      -27.85171         6.68266        -4.13716
   H      -28.39734         2.86456        -7.68053
   H      -23.80084         4.66909        -8.52953
   H      -27.74564         0.98118        -9.65115
*
