# ORCA input file
# SCF done       -200.695195302388          0.000390623500
! CAM-B3LYP def2-SVP def2/J RIJCOSX Grid4 TightSCF
%maxcore 5000
%tddft
    Mode sTDDFT
    Ethresh 5.0
    maxcore 5000
end

%pal
  nprocs 6
  end
* xyz 0 1
   C      -11.61064         0.51512        -2.94276
   C      -12.85419         1.09425        -2.94289
   C      -14.06443         0.37071        -2.96736
   N      -15.08410        -0.15671        -2.98832
   C      -13.11765         2.47917        -2.92884
   N      -13.41169         3.58959        -2.91499
   C      -11.36090        -0.92440        -2.93988
   C       -9.96294        -1.14245        -2.96426
   C       -9.40600        -2.39731        -2.96706
   C      -10.27206        -3.49516        -2.93227
   C      -11.66802        -3.26917        -2.90553
   C      -12.23050        -1.99853        -2.91111
   S      -12.55658        -4.76257        -2.86462
   C      -11.06020        -5.65683        -2.88201
   C       -9.95151        -4.88035        -2.91744
  Br      -11.10139        -7.53214        -2.85160
   C       -9.26820         0.15912        -2.99401
   O       -8.07094         0.32752        -3.14756
   C      -10.32323         1.17937        -2.91306
   C      -10.13132         2.53954        -2.89771
   N       -8.98597         3.20059        -2.70717
   C       -7.84435         2.69022        -2.07439
   C       -7.84364         2.10798        -0.84476
   S       -6.26985         1.65604        -0.34579
   C       -5.58080         2.26354        -1.79089
   C       -6.52361         2.77811        -2.63843
   N       -6.35690         3.33006        -3.88808
   C       -5.28438         3.49376        -4.65645
   C       -4.01229         2.96998        -4.54176
   C       -2.92627         3.43453        -5.28079
   C       -2.82494         4.65028        -5.94736
   C       -1.73988         5.11242        -6.71245
   C       -1.89352         6.38613        -7.20769
   C       -3.10729         6.98332        -6.84556
   S       -4.04435         5.90883        -5.85948
   C       -3.65915         8.23370        -7.15117
   C       -3.13137         9.32523        -7.83939
   C       -3.99674        10.39463        -7.87373
   C       -5.22101        10.18268        -7.21433
   S       -5.28650         8.56221        -6.59529
   C       -6.17355        11.18694        -7.03616
   C       -7.34855        11.22751        -6.30157
   C       -7.96689        10.13617        -5.60984
   C       -9.08648        10.33570        -4.71114
   N       -9.54451         9.29561        -3.98819
   C       -9.02976         8.10975        -4.18430
   C       -8.01795         7.88602        -5.16742
   N       -7.50200         8.91908        -5.82288
   C       -7.60290         6.56634        -5.37055
   N       -7.38824         5.43458        -5.39847
   C       -9.38709         6.96912        -3.43386
   N       -9.50793         5.94727        -2.92246
   C       -9.67018        11.59974        -4.50042
   C       -9.14765        12.66521        -5.28601
   C       -8.02915        12.47930        -6.16863
   N       -7.70810        13.59005        -6.81431
   S       -8.72000        14.76848        -6.37561
   N       -9.61047        13.90883        -5.33350
   C      -10.75551        11.73016        -3.59967
   C      -11.22593        12.84621        -2.96842
   C      -10.64192        14.14057        -2.73256
   C       -9.30033        14.42586        -2.65256
   C       -8.77907        15.70465        -2.38282
   N       -8.29743        16.73022        -2.19281
   C       -8.28808        13.45511        -2.76346
   N       -7.42472        12.69832        -2.81598
   C      -11.72095        15.04735        -2.35515
   C      -12.90140        14.28843        -2.15795
   C      -12.61809        12.86611        -2.45440
   O      -13.37296        11.92659        -2.34323
   C      -14.08746        14.85881        -1.76755
   C      -14.11215        16.24461        -1.57188
   C      -12.93084        16.99333        -1.78124
   C      -11.72729        16.41549        -2.16829
   S      -13.18878        18.68790        -1.49232
   C      -14.85691        18.36984        -1.09574
   C      -15.20529        17.06454        -1.17638
  Br      -15.98063        19.79293        -0.61426
   H       -8.33547        -2.52852        -2.98976
   H      -13.30085        -1.88192        -2.89230
   H       -8.94870        -5.26654        -2.93266
   H      -10.97858         3.18730        -3.08372
   H       -9.04821         4.22288        -2.79558
   H       -8.68712         1.91294        -0.21328
   H       -4.51956         2.21881        -1.91325
   H       -7.19558         3.76868        -4.27197
   H       -5.50346         4.10857        -5.52036
   H       -3.84292         2.12572        -3.89105
   H       -2.03176         2.82461        -5.28675
   H       -0.87132         4.50220        -6.88883
   H       -1.16087         6.89360        -7.80901
   H       -2.14751         9.32997        -8.27463
   H       -3.76815        11.33642        -8.34102
   H       -5.91624        12.13500        -7.49543
   H      -11.32822        10.82441        -3.42815
   H      -14.97046        14.25760        -1.61741
   H      -10.85240        17.02546        -2.32171
   H      -16.19150        16.69215        -0.96710
*
