# ORCA input file
# SCF done       -169.488580094083          0.000898793329
! CAM-B3LYP def2-SVP def2/J RIJCOSX Grid4 TightSCF
%maxcore 5000
%tddft
    Mode sTDDFT
    Ethresh 5.0
    maxcore 5000
end

%pal
  nprocs 6
  end
* xyz 0 1
   C        8.58833        -7.17685        -8.81313
   C        7.85933        -8.02347        -8.07542
   C        7.00511        -9.08139        -8.53827
   C        6.38677        -9.77123        -7.55747
   C        6.69737        -9.32460        -6.23879
   S        7.82022        -7.97895        -6.30446
   C        6.22117        -9.82346        -5.05510
   C        5.25008       -10.84159        -4.85829
   C        4.97380       -11.09886        -3.55911
   C        5.69750       -10.29158        -2.62885
   S        6.78030        -9.21455        -3.50334
   C        5.58935       -10.39729        -1.27837
   N        6.15459        -9.60485        -0.31011
   C        6.62971        -8.33206        -0.41166
   S        7.95796        -7.89085         0.62953
   C        7.99236        -6.31204        -0.08906
   N        8.92281        -5.39372         0.39680
   O        8.94359        -4.28372        -0.10675
   O        9.65245        -5.77328         1.30018
   C        7.04495        -6.14865        -1.06334
   C        6.22645        -7.27940        -1.24239
   C        5.11174        -7.27539        -2.15764
   C        3.99210        -8.01171        -2.02227
   C        2.97429        -8.12138        -3.01928
   S        1.54862        -9.07539        -2.66183
   C        2.96126        -7.65301        -4.30279
   C        1.81629        -8.03329        -5.04763
   C        1.50181        -7.72946        -6.39690
   C        2.49442        -6.88631        -7.15173
   C        3.65686        -7.73451        -7.67008
   C        0.34181        -8.23008        -6.95682
   C       -0.04812        -8.02373        -8.39588
   C        0.27536        -9.26063        -9.23705
   C        0.94808        -8.82124        -4.26854
   C       -0.22441        -9.29764        -4.82383
   S       -1.44871       -10.26469        -4.05363
   C       -0.53165        -9.01654        -6.16416
   C       -1.77081        -9.60130        -6.55047
   C       -2.37552       -10.28846        -5.54530
   N       -3.55225       -10.99660        -5.52009
   C       -4.34299       -11.39143        -6.54570
   S       -4.05265       -10.93304        -8.19031
   C       -5.51201       -11.74557        -8.67302
   N       -5.82454       -11.73674       -10.02742
   O       -6.84909       -12.29360       -10.38559
   O       -5.03552       -11.16451       -10.76833
   C       -6.17713       -12.31811        -7.62171
   C       -5.51515       -12.15275        -6.39163
   C       -6.03613       -12.70544        -5.17074
   C       -5.33097       -13.09692        -4.07987
   C       -5.86573       -13.61924        -2.87531
   C       -7.16766       -13.69973        -2.46222
   C       -7.58177       -14.24205        -1.21137
   C       -8.91877       -14.20459        -0.98783
   C       -9.66453       -13.62818        -2.04756
   S       -8.58247       -13.13744        -3.33967
   C      -11.02261       -13.45387        -2.13351
   C      -12.00518       -13.82597        -1.17093
   C      -13.27348       -13.53241        -1.52820
   C      -13.39856       -12.89875        -2.81080
   S      -11.78816       -12.70789        -3.52316
   C      -14.52119       -12.49534        -3.41918
   H        8.58221        -7.23919        -9.88702
   H        9.19727        -6.41416        -8.36348
   H        6.89497        -9.27384        -9.59067
   H        5.71551       -10.59493        -7.72323
   H        4.77882       -11.33861        -5.68703
   H        4.25752       -11.82515        -3.21869
   H        4.98843       -11.20611        -0.88369
   H        6.35208       -10.06518         0.56920
   H        6.92442        -5.22619        -1.60219
   H        5.21769        -6.60781        -3.00016
   H        3.82644        -8.58822        -1.12373
   H        3.76570        -7.06453        -4.70225
   H        2.02001        -6.37904        -7.99029
   H        2.88220        -6.11317        -6.48621
   H        4.39786        -7.10648        -8.16011
   H        3.30232        -8.47093        -8.38717
   H        4.13756        -8.26312        -6.84999
   H        0.46712        -7.16478        -8.82156
   H       -1.11863        -7.81977        -8.45338
   H        1.34566        -9.45243        -9.23433
   H       -0.04684        -9.11092       -10.26447
   H       -0.22811       -10.13938        -8.84205
   H       -2.19447        -9.48698        -7.52815
   H       -3.89312       -11.25140        -4.60015
   H       -7.09760       -12.85949        -7.74403
   H       -7.10272       -12.87207        -5.18920
   H       -4.24770       -13.08461        -4.11243
   H       -5.13849       -13.99413        -2.16563
   H       -6.86223       -14.64228        -0.51840
   H       -9.39315       -14.56834        -0.09404
   H      -11.72888       -14.30135        -0.24639
   H      -14.14547       -13.73892        -0.93323
   H      -15.47907       -12.63151        -2.94872
   H      -14.50523       -12.02959        -4.38714
*
