# ORCA input file
# SCF done       -195.525586831839          0.000717391680
! CAM-B3LYP def2-SVP def2/J RIJCOSX Grid4 TightSCF
%maxcore 5000
%tddft
    Mode sTDDFT
    Ethresh 5.0
    maxcore 5000
end

%pal
  nprocs 6
  end
* xyz 0 1
   C       -5.92721       -13.31394        -5.76302
   C       -5.66598       -13.53094        -4.46811
   C       -6.42773       -14.31335        -3.53523
   C       -5.91512       -14.35329        -2.28741
   C       -4.71069       -13.60876        -2.12428
   S       -4.25576       -12.85192        -3.63911
   C       -3.97133       -13.46212        -0.97915
   C       -4.21527       -14.01407         0.30541
   C       -3.29841       -13.67723         1.24627
   C       -2.26143       -12.82813         0.77106
   S       -2.50976       -12.48873        -0.94612
   C       -1.22105       -12.31473         1.48024
   N       -0.29031       -11.49497         0.91633
   C        0.74785       -10.89874         1.53408
   S        1.03506       -11.11955         3.23003
   C        2.39875       -10.04340         3.12098
   N        3.11119        -9.81777         4.29710
   O        4.07387        -9.07311         4.25309
   O        2.70576       -10.39728         5.29516
   C        2.60813        -9.55004         1.86192
   C        1.67529       -10.03053         0.92404
   C        1.65221        -9.71469        -0.47208
   C        2.39295        -8.76078        -1.07539
   C        2.34605        -8.49976        -2.47246
   C        3.00787        -7.47675        -3.13925
   C        3.82033        -6.57078        -2.43913
   N        4.47122        -5.86254        -1.81491
   C        2.75702        -7.48093        -4.53915
   C        1.91165        -8.52648        -4.89177
   S        1.40173        -9.49363        -3.56485
   S        1.54170        -8.64678        -6.58263
   C        2.53698        -7.25416        -6.83791
   C        3.12127        -6.72351        -5.69202
   C        3.89870        -5.57538        -6.00129
   C        4.61717        -4.83555        -5.04861
   N        5.21251        -4.23150        -4.27630
   C        3.89124        -5.27430        -7.35948
   S        2.92573        -6.40698        -8.28221
   C        4.53571        -4.18171        -8.01252
   C        4.70639        -3.99620        -9.38012
   C        4.23441        -4.88029       -10.36249
   N        3.83219        -5.58069       -11.17759
   C        5.37308        -2.77865        -9.68485
   C        5.65481        -2.05604        -8.53177
   S        5.18172        -2.84635        -7.08050
   S        6.39296        -0.50870        -8.79551
   C        6.33502        -0.83038       -10.49622
   C        5.79548        -2.06814       -10.84546
   C        5.81076        -2.25775       -12.24933
   C        5.52679        -3.46222       -12.91055
   N        5.35984        -4.43685       -13.49202
   C        6.31006        -1.15097       -12.93171
   S        6.83819         0.10854       -11.84007
   C        6.48962        -0.96413       -14.32769
   C        5.83882        -1.54253       -15.36820
   C        6.48265        -1.50035       -16.72025
   O        7.39648        -0.78685       -17.05538
   C        5.80124        -2.54946       -17.49949
   C        6.10903        -3.03721       -18.73752
   C        5.34246        -4.10027       -19.26483
   C        4.27578        -4.64690       -18.49210
   C        3.53101        -5.72252       -19.01659
   C        3.82616        -6.22718       -20.25183
   C        4.87694        -5.68186       -21.01757
   C        5.62020        -4.64115       -20.53560
   F        5.14275        -6.19578       -22.22541
   F        3.11755        -7.24798       -20.74984
   C        3.97171        -4.11328       -17.21923
   C        4.71736        -3.07153       -16.73695
   C        4.62834        -2.33279       -15.48257
   C        3.50723        -2.23752       -14.70478
   C        3.40260        -1.39036       -13.58495
   N        3.28326        -0.70301       -12.67324
   C        2.30468        -2.92434       -14.97919
   N        1.29989        -3.44321       -15.16972
   H       -6.79574       -13.74644        -6.22735
   H       -5.28578       -12.70817        -6.37650
   H       -7.32876       -14.81078        -3.84728
   H       -6.35591       -14.88998        -1.46620
   H       -5.06590       -14.64459         0.49069
   H       -3.32412       -14.00158         2.27094
   H       -1.10062       -12.53739         2.52924
   H       -0.41671       -11.30037        -0.07153
   H        3.41730        -8.87933         1.63913
   H        0.98267       -10.29608        -1.09573
   H        3.05863        -8.12670        -0.50765
   H        7.29941        -0.29690       -14.60980
   H        6.93001        -2.62373       -19.30328
   H        2.72272        -6.14945       -18.44388
   H        6.42233        -4.23703       -21.13311
   H        3.17261        -4.55302       -16.64450
*
