# ORCA input file
# SCF done       -157.153645941589          0.000693816162
! CAM-B3LYP def2-SVP def2/J RIJCOSX Grid4 TightSCF
%maxcore 5000
%tddft
    Mode sTDDFT
    Ethresh 5.0
    maxcore 5000
end

%pal
  nprocs 6
  end
* xyz 0 1
   C       12.77843        -9.14815         4.61307
   C       12.45705        -8.40958         3.54297
   C       13.32066        -7.56345         2.76847
   C       12.71518        -6.94405         1.73318
   C       11.32947        -7.24394         1.59745
   S       10.82411        -8.35232         2.86147
   C       10.46457        -6.77802         0.64193
   C       10.73742        -5.89344        -0.43412
   C        9.66554        -5.63530        -1.22042
   C        8.45751        -6.29112        -0.83209
   S        8.77758        -7.25702         0.60648
   C        7.27408        -6.15563        -1.49372
   C        5.98783        -6.72599        -1.23153
   C        5.73875        -7.62797        -0.18201
   C        4.46985        -8.10660         0.02160
   C        3.41953        -7.74609        -0.84389
   C        3.65032        -6.86558        -1.89344
   C        4.91854        -6.35922        -2.07003
   C        2.22627        -8.45591        -0.44639
   C        2.52986        -9.24188         0.67902
   C        3.97477        -9.05357         1.09109
   C        3.97402        -8.38951         2.48725
   C        5.34211        -8.11708         3.10071
   C        4.74225       -10.38371         1.08767
   C        4.64450       -11.10789        -0.24989
   C        1.57263       -10.03412         1.26080
   C        0.28170       -10.07984         0.71091
   C        0.00312        -9.31264        -0.42918
   C        0.95388        -8.49354        -1.00176
   C       -0.74949       -10.91755         1.27371
   C       -0.77473       -11.36111         2.54815
   C       -1.72546       -12.26301         3.09914
   C       -2.72369       -13.00508         2.55015
   C       -3.28890       -13.89790         3.53891
   C       -2.65110       -13.75633         4.72507
   C       -1.72576       -12.57467         4.56598
   O       -1.26047       -11.88202         5.43843
   C       -2.75640       -14.49545         5.94803
   C       -3.88758       -14.99301         6.56470
   C       -5.31313       -14.94419         6.14938
   N       -3.49745       -15.55091         7.74480
   C       -2.14722       -15.43566         7.91510
   C       -1.46562       -16.00274         9.10770
   C       -1.63954       -14.79203         6.80674
   C       -0.26945       -14.46692         6.50865
   C        0.21150       -14.41963         5.25334
   C        1.47593       -13.87772         4.85201
   S        2.18130       -14.39931         3.34232
   C        3.48147       -13.29763         3.51799
   C        3.37603       -12.56036         4.66118
   C        2.22968       -12.88373         5.43103
   C        1.87360       -12.11861         6.66387
   C        2.56838       -10.75924         6.65188
   C        4.06955       -10.94391         6.45520
   C        4.35872       -11.49238         5.06217
   N        5.70307       -12.12482         5.00354
   O        6.08090       -12.75264         5.96156
   O        6.31267       -11.99854         3.96775
   H       13.78468        -9.15492         4.99350
   H       12.05105        -9.75480         5.12013
   H       14.36028        -7.46096         3.02511
   H       13.21168        -6.27749         1.05022
   H       11.71737        -5.47887        -0.59036
   H        9.68715        -4.98951        -2.08108
   H        7.31211        -5.49742        -2.35477
   H        6.54870        -7.95562         0.44656
   H        2.84985        -6.58488        -2.56208
   H        5.10746        -5.66779        -2.87941
   H        3.39804        -9.03340         3.15775
   H        3.42958        -7.44474         2.40536
   H        5.93327        -9.02486         3.18887
   H        5.21221        -7.69661         4.09657
   H        5.89920        -7.39968         2.50591
   H        4.33676       -11.02472         1.87237
   H        5.79235       -10.19841         1.31281
   H        3.61083       -11.35468        -0.48347
   H        5.22041       -12.02966        -0.21519
   H        5.03889       -10.48678        -1.05134
   H        1.81282       -10.65487         2.11139
   H       -0.99018        -9.35737        -0.85404
   H        0.71452        -7.90020        -1.87202
   H       -1.56385       -11.18023         0.61058
   H       -0.01724       -11.03426         3.24962
   H       -3.03690       -12.99802         1.52131
   H       -4.05240       -14.62030         3.31044
   H       -5.60984       -15.87384         5.66046
   H       -5.46244       -14.12834         5.44683
   H       -5.96149       -14.79212         7.01123
   H       -4.12146       -15.98459         8.40629
   H       -2.02408       -15.77411        10.01516
   H       -0.46600       -15.58780         9.19676
   H       -1.37681       -17.08759         9.02777
   H        0.37237       -14.24180         7.34751
   H       -0.39700       -14.80242         4.44293
   H        4.25650       -13.26437         2.77728
   H        2.19131       -12.67393         7.55203
   H        0.78887       -11.99579         6.70820
   H        2.38159       -10.24295         7.59390
   H        2.16186       -10.14446         5.84601
   H        4.44746       -11.65216         7.19635
   H        4.59412        -9.99559         6.58788
   H        4.37307       -10.69690         4.30928
*
