# ORCA input file
# SCF done       -197.161032157592          0.000863673806
! CAM-B3LYP def2-SVP def2/J RIJCOSX Grid4 TightSCF
%maxcore 5000
%tddft
    Mode sTDDFT
    Ethresh 5.0
    maxcore 5000
end

%pal
  nprocs 6
  end
* xyz 0 1
   C       -2.70090        -0.56097        -0.28020
   C       -3.02768        -0.52283        -1.71310
   O       -3.53088        -1.39802        -2.39169
   C       -2.55840         0.79176        -2.18356
   C       -2.03577         1.52804        -1.10136
   C       -2.24384         0.75720         0.12850
   C       -2.21806         1.20881         1.42668
   C       -1.52395         2.39953         1.95434
   O       -0.66853         3.07393         1.41727
   C       -1.98201         2.56472         3.35399
   C       -2.87327         1.54049         3.67958
   C       -3.03736         0.63059         2.52223
   O       -3.77303        -0.33353         2.49120
   C       -3.45131         1.47025         4.93332
   C       -3.11094         2.44480         5.86237
   C       -2.21994         3.46005         5.54073
   C       -1.64130         3.53226         4.28012
   C       -1.51604         2.79111        -1.33974
   C       -1.53446         3.29027        -2.63623
   C       -2.06111         2.56002        -3.69087
   C       -2.58140         1.29258        -3.46996
   C       -2.60450        -1.69046         0.48482
   C       -2.99435        -3.01253         0.19892
   C       -2.76235        -4.05655         1.09802
   C       -3.24246        -5.26730         0.63735
   C       -3.86054        -5.17254        -0.62532
   S       -3.83176        -3.55979        -1.24310
   C       -4.32525        -6.39075        -1.10418
   C       -4.07711        -7.43185        -0.22097
   S       -3.25909        -6.89472         1.23437
   C       -4.39300        -8.80445        -0.41826
   C       -4.07386        -9.78752         0.54426
   C       -4.32186       -11.18476         0.33428
   N       -4.00170       -12.06349         1.30497
   C       -3.46988       -11.64128         2.40457
   C       -3.20706       -10.26098         2.60552
   N       -3.50755        -9.38857         1.70026
   F       -2.65476        -9.82686         3.73460
   F       -3.19324       -12.53756         3.34838
   C       -4.90260       -11.68539        -0.85053
   C       -5.27421       -10.70350        -1.79928
   C       -5.02155        -9.29355        -1.58973
   N       -5.44533        -8.56522        -2.62339
   S       -6.08726        -9.52901        -3.73094
   N       -5.86689       -10.92472        -2.97364
   C       -5.08655       -13.08002        -1.05982
   C       -5.76247       -13.68155        -2.10873
   C       -5.76819       -15.06713        -1.99380
   C       -5.07279       -15.54311        -0.86929
   S       -4.42324       -14.24839         0.07058
   C       -5.16863       -16.92105        -0.69694
   C       -5.94566       -17.51192        -1.67304
   S       -6.50159       -16.36066        -2.86891
   C       -6.43118       -18.85012        -1.72595
   C       -6.75005       -19.63308        -0.66753
   C       -6.94542       -21.09462        -0.87180
   O       -7.12091       -21.66631        -1.92250
   C       -6.79701       -21.68038         0.47153
   C       -6.62387       -20.65808         1.42910
   C       -6.75174       -19.36018         0.76794
   C       -6.99755       -18.13006         1.32094
   C       -6.58126       -17.62030         2.64519
   O       -6.09305       -18.22234         3.57728
   C       -6.76008       -16.14826         2.58186
   C       -7.40144       -15.79445         1.39256
   C       -7.64434       -17.01130         0.58801
   O       -8.32534       -17.08236        -0.41281
   C       -7.67161       -14.47215         1.09419
   C       -7.26125       -13.50321         2.00011
   C       -6.61522       -13.85379         3.17763
   C       -6.35899       -15.18319         3.48645
   C       -6.46800       -21.00527         2.76401
   C       -6.47679       -22.34899         3.11172
   C       -6.64918       -23.34621         2.16213
   C       -6.81294       -23.01608         0.82496
   H       -4.13932         0.67446         5.17425
   H       -3.54124         2.41050         6.85224
   H       -1.97423         4.20490         6.28310
   H       -0.95040         4.31938         4.01973
   H       -1.07902         3.37217        -0.54521
   H       -1.12441         4.27170        -2.82348
   H       -2.06359         2.97778        -4.68647
   H       -2.99902         0.70206        -4.27108
   H       -2.12888        -1.58728         1.45209
   H       -2.26919        -3.90999         2.04160
   H       -4.82001        -6.53755        -2.04529
   H       -6.23184       -13.11972        -2.89365
   H       -4.69356       -17.46935         0.09579
   H       -6.58546       -19.28484        -2.70781
   H       -8.16604       -14.20922         0.17126
   H       -7.44166       -12.46057         1.78148
   H       -6.30714       -13.08089         3.86561
   H       -5.85828       -15.46247         4.40020
   H       -6.32328       -20.25036         3.51827
   H       -6.34921       -22.62168         4.14885
   H       -6.66025       -24.38218         2.46673
   H       -6.95739       -23.77128         0.06752
*
