# ORCA input file
# SCF done       -271.781387011414          0.000847101963
! CAM-B3LYP def2-SVP def2/J RIJCOSX Grid4 TightSCF
%maxcore 5000
%tddft
    Mode sTDDFT
    Ethresh 5.0
    maxcore 5000
end

%pal
  nprocs 6
  end
* xyz 0 1
   C      -13.91096         0.52245         2.07543
   C      -15.21323         0.54463         1.66147
   F      -15.92470         1.67768         1.73635
   C      -15.82388        -0.61879         1.15268
   F      -17.10283        -0.56866         0.75393
   C      -15.12366        -1.78923         1.06565
   C      -13.78084        -1.84481         1.48630
   C      -13.16122        -0.66848         1.99892
   C      -11.81359        -0.69970         2.42536
   C      -11.10999        -1.87232         2.34446
   C      -11.73928        -3.04324         1.84114
   C      -13.03650        -3.04345         1.41714
   C      -10.78766        -4.17288         1.87689
   O      -11.02434        -5.30463         1.50710
   C       -9.55698        -3.63543         2.49916
   C       -9.73534        -2.20859         2.70051
   C       -8.77324        -1.30814         3.07817
   C       -7.41519        -1.61123         3.31426
   N       -6.29207        -1.76419         3.49873
   C       -9.00948         0.07296         3.23991
   N       -9.14167         1.20248         3.39744
   C       -8.50149        -4.34885         3.00276
   C       -8.17859        -5.71187         2.84670
   C       -8.57445        -6.64290         1.91416
   C       -8.01265        -7.91738         2.10500
   C       -8.21244        -9.07320         1.30925
   C       -9.17521        -9.08036         0.23338
   C      -10.40292        -8.47362         0.18709
   C      -11.09354        -8.70828        -1.01579
   C      -10.40485        -9.48454        -1.89810
   S       -8.87362        -9.96059        -1.24326
   C      -10.81340        -9.93010        -3.25519
   C       -7.45234       -10.18562         1.64890
   C       -6.55655       -10.21618         2.74871
   C       -6.37419        -9.07352         3.55687
   C       -7.11535        -7.95066         3.20700
   S       -7.02815        -6.40034         3.98908
   C       -5.45702        -9.04428         4.67748
   C       -5.61576        -8.40316         5.87473
   C       -4.50432        -8.52862         6.73069
   C       -3.48404        -9.25038         6.19310
   S       -3.89111        -9.80865         4.60302
   C       -2.16301        -9.57642         6.79127
   C       -5.96968       -11.48987         2.91394
   C       -6.36067       -12.41198         1.98655
   S       -7.50749       -11.72976         0.84683
   C       -5.94467       -13.78320         1.85621
   C       -6.33191       -14.53428         0.75430
   C       -5.94046       -15.85194         0.56164
   C       -5.13768       -16.50750         1.48209
   C       -4.74948       -15.77984         2.63976
   C       -5.12693       -14.42654         2.83219
   N       -4.70779       -13.78458         3.93886
   C       -3.96793       -14.40990         4.81671
   C       -3.60710       -15.77572         4.63209
   N       -4.00455       -16.40815         3.56106
   C       -2.78424       -16.52928         5.61915
   C       -3.52080       -13.63779         6.01278
   C       -4.69004       -17.86322         1.32251
   C       -4.84653       -18.66651         0.22520
   C       -4.29215       -19.95664         0.37347
   C       -4.27729       -21.01143        -0.56714
   C       -4.93793       -20.92888        -1.85282
   C       -4.52520       -21.44464        -3.04984
   C       -5.44583       -21.24111        -4.09655
   C       -6.57219       -20.58368        -3.70982
   S       -6.50711       -20.18594        -2.02433
   C       -7.75313       -20.20441        -4.52786
   C       -3.60381       -22.16271        -0.18038
   C       -3.01130       -22.33152         1.09812
   C       -3.08808       -21.29700         2.05764
   C       -3.68908       -20.11391         1.64566
   S       -3.82749       -18.66278         2.60708
   C       -2.60009       -21.49436         3.40359
   C       -2.72381       -22.61280         4.18272
   C       -2.15742       -22.46701         5.46348
   C       -1.59368       -21.24524         5.67052
   S       -1.76894       -20.23414         4.27191
   C       -0.90527       -20.73810         6.88606
   C       -2.36458       -23.57654         1.21793
   C       -2.50327       -24.39035         0.12043
   S       -3.40162       -23.58959        -1.15899
   C       -1.90609       -25.66348        -0.03551
   C       -2.17712       -26.62833        -0.95699
   C       -1.15572       -27.65879        -1.27606
   O       -0.16419       -27.92690        -0.63714
   C       -1.58235       -28.23103        -2.57183
   C       -0.93343       -29.13082        -3.36653
   C       -1.52537       -29.51969        -4.58949
   C       -2.78122       -28.96209        -4.96796
   C       -3.36127       -29.35071        -6.19220
   C       -2.72739       -30.25250        -6.99993
   C       -1.48694       -30.80456        -6.62370
   C       -0.89727       -30.44653        -5.44397
   F       -0.88714       -31.68664        -7.43609
   F       -3.28238       -30.62134        -8.16303
   C       -3.43465       -28.03818        -4.12021
   C       -2.84562       -27.68263        -2.93700
   C       -3.29369       -26.80645        -1.85864
   C       -4.59400       -26.45828        -1.60026
   C       -5.00624       -25.91995        -0.36254
   N       -5.37340       -25.56041         0.66382
   C       -5.66020       -26.70385        -2.48634
   N       -6.55120       -26.86342        -3.19254
   H      -13.45816         1.42255         2.46099
   H      -15.60588        -2.67141         0.67453
   H      -11.37502         0.20542         2.81296
   H      -13.48931        -3.94648         1.03672
   H       -7.82690        -3.81604         3.66346
   H       -9.21583        -6.39626         1.09135
   H      -10.81918        -7.90674         0.99958
   H      -12.07244        -8.31208        -1.21907
   H      -11.79174        -9.52463        -3.50125
   H      -10.86060       -11.01783        -3.30372
   H      -10.09480        -9.59574        -4.00298
   H       -6.51617        -7.88660         6.15336
   H       -4.46423        -8.09328         7.71330
   H       -2.10306        -9.17300         7.79914
   H       -1.35610        -9.15049         6.19516
   H       -2.01161       -10.65479         6.83318
   H       -5.28308       -11.74633         3.69662
   H       -6.95902       -14.06735         0.00818
   H       -6.27777       -16.36968        -0.32226
   H       -3.27737       -16.54494         6.58992
   H       -1.81243       -16.05387         5.74288
   H       -2.64522       -17.54627         5.26345
   H       -3.88758       -12.61751         5.94386
   H       -2.43323       -13.62914         6.06976
   H       -3.90200       -14.09607         6.92421
   H       -5.32598       -18.33595        -0.67694
   H       -3.57159       -21.92047        -3.19102
   H       -5.27618       -21.57506        -5.10472
   H       -7.59761       -20.50038        -5.56243
   H       -7.92036       -19.12825        -4.48958
   H       -8.65226       -20.69435        -4.15437
   H       -3.25197       -23.49381         3.86443
   H       -2.17099       -23.24393         6.20729
   H       -0.86067       -21.51935         7.64087
   H       -1.43637       -19.88063         7.29902
   H        0.10896       -20.41846         6.64915
   H       -1.81012       -23.87835         2.08815
   H       -1.05726       -25.86297         0.61166
   H        0.01844       -29.54216        -3.06675
   H       -4.31243       -28.94065        -6.49383
   H        0.05281       -30.87787        -5.16999
   H       -4.38181       -27.62563        -4.43009
*
