# ORCA input file
# SCF done       -180.089041948334          0.000467906764
! CAM-B3LYP def2-SVP def2/J RIJCOSX Grid4 TightSCF
%maxcore 5000
%tddft
    Mode sTDDFT
    Ethresh 5.0
    maxcore 5000
end

%pal
  nprocs 6
  end
* xyz 0 1
   C       -1.65765        -2.34699         1.25490
   S       -0.88976        -2.99296        -0.11494
   C       -1.72479        -4.51383         0.00939
   C       -2.60542        -4.48643         1.09180
   C       -2.55026        -3.24125         1.81016
   C       -3.36145        -3.04844         2.94373
   C       -4.22739        -4.02160         3.37214
   C       -5.02923        -3.70309         4.59511
   O       -4.90569        -2.65235         5.16975
   O       -5.88885        -4.62410         5.03523
   C       -4.31410        -5.24070         2.62730
   O       -5.20965        -6.20183         3.03264
   C       -3.53215        -5.45763         1.52685
   C       -1.37652        -5.52007        -0.94220
   C       -1.62759        -6.83981        -0.85841
   C       -1.25475        -7.78150        -1.89458
   C       -1.35374        -7.42809        -3.20893
   S       -0.95512        -8.67291        -4.32272
   C       -0.61065        -9.74058        -2.99709
   C       -0.80293        -9.14780        -1.74106
   C       -0.47710        -9.89899        -0.58537
   C       -0.57798        -9.22421         0.75996
   C       -1.95295        -9.43202         1.40258
   C       -0.05608       -11.21872        -0.69304
   C        0.25549       -12.01733         0.54750
   C        1.76306       -12.11079         0.78854
   C        0.12626       -11.81520        -1.96720
   C        0.64325       -13.11088        -2.36372
   C        0.73030       -13.22683        -3.72131
   S        0.18911       -11.85817        -4.60017
   C       -0.14679       -11.04005        -3.10651
   C        1.06320       -14.21721        -1.53105
   C        2.06678       -15.05157        -1.86417
   C        2.50542       -16.16045        -1.07998
   S        4.14141       -16.70937        -1.27135
   C        3.94032       -17.85221        -0.00318
   C        2.70265       -17.82646         0.55488
   C        2.29237       -18.77144         1.63634
   C        1.85020       -16.85678        -0.06708
   C        0.44931       -16.68694         0.19111
   C       -0.16063       -16.80909         1.39818
   C       -1.55797       -16.71686         1.62811
   C       -2.52092       -16.60866         0.66411
   C       -3.89784       -16.58022         0.91719
   C       -4.84017       -16.51637        -0.08447
   C       -6.24882       -16.53629         0.03277
   C       -6.91110       -16.49462        -1.16029
   C       -6.05680       -16.43164        -2.28080
   S       -4.38540       -16.42215        -1.77878
   C       -6.36985       -16.38707        -3.62875
   C       -7.62562       -16.41359        -4.26711
   C       -7.54769       -16.36544        -5.62766
   C       -6.22467       -16.29311        -6.13629
   S       -5.08320       -16.29336        -4.80955
   C       -5.88548       -16.23025        -7.46545
   C       -4.59626       -16.14454        -8.02480
   S       -4.42597       -16.06776        -9.77592
   C       -2.70876       -15.97180        -9.74432
   C       -2.25874       -15.99699        -8.44656
   C       -3.31899       -16.09510        -7.48886
   O       -2.81804       -16.11716        -6.23491
   C       -1.47069       -16.03434        -6.37425
   N       -0.69024       -16.03441        -5.20429
   O        0.51952       -15.94403        -5.35712
   O       -1.24599       -16.11262        -4.12731
   C       -1.06224       -15.95791        -7.68146
   H       -1.42602        -1.35709         1.59233
   H       -3.31431        -2.12228         3.49583
   H       -5.88816        -5.41614         4.47090
   H       -5.17357        -6.95545         2.43100
   H       -3.65436        -6.37653         0.97356
   H       -0.78867        -5.15929        -1.77707
   H       -2.14464        -7.23320        -0.00217
   H       -1.69522        -6.48616        -3.59186
   H       -0.38785        -8.15850         0.62871
   H        0.19523        -9.59509         1.43209
   H       -2.74742        -9.18206         0.70174
   H       -2.05301        -8.81247         2.29232
   H       -2.09419       -10.47145         1.68988
   H       -0.17436       -13.01325         0.45200
   H       -0.21250       -11.57114         1.42144
   H        2.26325       -12.57648        -0.05645
   H        1.96704       -12.70233         1.67859
   H        2.18389       -11.11707         0.92804
   H        1.07136       -14.08525        -4.26704
   H        0.54968       -14.37685        -0.59827
   H        2.65759       -14.85075        -2.74794
   H        4.75893       -18.49515         0.25517
   H        2.95828       -19.63133         1.65127
   H        1.27214       -19.11376         1.47553
   H        2.34469       -18.28895         2.61236
   H       -0.14337       -16.44317        -0.68139
   H        0.45126       -16.95677         2.27678
   H       -1.87968       -16.76425         2.66161
   H       -2.22714       -16.56461        -0.37644
   H       -4.24740       -16.63422         1.94022
   H       -6.73162       -16.58917         0.99316
   H       -7.98173       -16.50856        -1.26159
   H       -8.54663       -16.47081        -3.71449
   H       -8.39784       -16.37858        -6.28685
   H       -6.69986       -16.24369        -8.17728
   H       -2.15586       -15.90439       -10.65700
   H       -0.05103       -15.88505        -8.02382
*
