# ORCA input file
# SCF done       -232.388600109949          0.000855198789
! CAM-B3LYP def2-SVP def2/J RIJCOSX Grid4 TightSCF
%maxcore 5000
%tddft
    Mode sTDDFT
    Ethresh 5.0
    maxcore 5000
end

%pal
  nprocs 6
  end
* xyz 0 1
   C      -16.69452         8.33564         3.70641
   C      -18.01411         8.00787         3.54992
   C      -18.99635         8.16794         4.55011
   N      -19.83709         8.28772         5.32210
   C      -18.55957         7.44138         2.37811
   N      -19.05671         6.95628         1.46410
   C      -16.06669         8.81755         4.92787
   C      -14.66650         8.90726         4.72407
   C      -13.80202         9.31530         5.71063
   C      -14.34228         9.65079         6.95627
   C      -15.74320         9.56862         7.14692
   C      -16.61798         9.15616         6.15084
   S      -16.19868        10.04108         8.75543
   C      -14.52529        10.33450         9.14676
   C      -13.66758        10.09298         8.12643
  Br      -14.06887        10.93700        10.86246
   C      -14.34237         8.52589         3.33525
   O      -13.26583         8.60792         2.79000
   C      -15.64853         8.17230         2.70927
   C      -15.78514         7.91764         1.38751
   C      -14.65294         7.67746         0.51129
   C      -14.44524         8.53424        -0.57876
   C      -13.33567         8.42635        -1.38788
   C      -12.39518         7.42239        -1.16914
   C      -12.61336         6.53128        -0.14612
   C      -13.73276         6.64232         0.69295
   N      -13.78335         5.55561         1.54427
   C      -14.80302         5.23888         2.50153
   C      -12.72593         4.70044         1.33386
   O      -12.57426         3.64010         1.88373
   C      -11.82318         5.33272         0.27915
   C      -10.47764         5.70494         0.93693
   C      -10.71980         6.66058         2.11040
   O      -11.37592         6.44438         3.10006
   N      -10.05442         7.82375         1.84061
   C      -10.11297         8.97888         2.69234
   C       -9.40053         7.76605         0.62233
   C       -8.65938         8.74280        -0.00805
   C       -8.13907         8.46893        -1.28065
   C       -8.32496         7.20576        -1.84970
   C       -9.04125         6.21837        -1.19050
   C       -9.59354         6.50618         0.03857
   C       -7.45638         9.53037        -1.99149
   C       -7.42614         9.64943        -3.33224
   C       -6.86074        10.75786        -4.02529
   O       -6.09803        11.69244        -3.39721
   C       -7.02630        11.14197        -5.34120
   C       -7.64245        10.77158        -6.61838
   O       -8.30260         9.81586        -6.93302
   N       -7.29121        11.82142        -7.46486
   C       -6.52407        12.83081        -6.88202
   O       -6.13365        13.81916        -7.44736
   C       -6.35581        12.37759        -5.50045
   C       -5.78228        12.68691        -4.27842
   C       -4.99837        13.79911        -3.90417
   C       -4.27681        13.89278        -2.74949
   C       -3.53693        15.03521        -2.41096
   C       -2.64900        15.12632        -1.36717
   C       -1.93072        16.28299        -0.97561
   C       -1.06485        16.08056         0.05460
   C       -1.03113        14.74466         0.51806
   S       -2.18296        13.76727        -0.35639
   C       -0.17761        14.21853         1.47294
   C        0.77035        14.92131         2.24843
   C        1.52613        14.11944         3.05002
   C        1.22135        12.74305         2.94113
   S       -0.08937        12.50404         1.81145
   C        1.90148        11.71432         3.55997
   C        1.60514        10.36362         3.40039
   C        2.35208         9.29582         3.84654
   C        3.70828         9.22055         4.31739
   C        4.74536        10.06580         3.99345
   C        6.06335         9.90736         4.46343
   N        7.14783         9.84082         4.83573
   C        4.65212        11.11963         3.06335
   N        4.64942        11.96093         2.28099
   C        3.85907         7.94273         5.01255
   C        2.69209         7.16864         4.79255
   C        1.72641         7.96379         4.00276
   O        0.63610         7.61781         3.60179
   C        2.55158         5.89314         5.28049
   C        3.60645         5.36045         6.03092
   C        4.75871         6.14810         6.25860
   C        4.90562         7.43651         5.75704
   S        5.93358         5.30125         7.21860
   C        4.87747         3.91593         7.29455
   C        3.70424         4.07839         6.63871
  Br        5.42340         2.38749         8.23530
   H      -12.73999         9.36684         5.53016
   H      -17.67740         9.11328         6.34122
   H      -12.60280        10.22075         8.19524
   H      -16.76037         7.96265         0.91865
   H      -15.16046         9.32533        -0.74923
   H      -13.19392         9.12360        -2.19879
   H      -11.52760         7.33646        -1.80456
   H      -15.79494         5.36340         2.06193
   H      -14.71503         5.86894         3.39067
   H      -14.65203         4.19856         2.79264
   H      -11.63593         4.63262        -0.53903
   H      -10.01155         4.78488         1.30277
   H      -10.80376         8.74211         3.49926
   H      -10.49578         9.83736         2.13857
   H       -9.12647         9.21138         3.09956
   H       -8.51107         9.71267         0.44052
   H       -7.88866         6.99060        -2.81201
   H       -9.17250         5.24641        -1.64143
   H       -7.01437        10.31254        -1.38807
   H       -7.91680         8.93296        -3.97447
   H       -7.57527        11.85176        -8.43369
   H       -4.96529        14.59559        -4.63415
   H       -4.25320        13.04982        -2.07102
   H       -3.66191        15.91686        -3.02634
   H       -2.07819        17.22613        -1.47110
   H       -0.43614        16.84436         0.47444
   H        0.87162        15.99012         2.19730
   H        2.30915        14.46842         3.69883
   H        2.71766        12.00385         4.20687
   H        0.65760        10.10552         2.93718
   H        1.65714         5.32119         5.08967
   H        5.80147         7.99971         5.95947
   H        2.93819         3.32663         6.58414
*
