# ORCA input file
# SCF done       -221.129477646982          0.000866756403
! CAM-B3LYP def2-SVP def2/J RIJCOSX Grid4 TightSCF
%maxcore 5000
%tddft
    Mode sTDDFT
    Ethresh 5.0
    maxcore 5000
end

%pal
  nprocs 6
  end
* xyz 0 1
   C       -9.38669        -1.08989        -2.20105
   C       -9.89321        -0.88288        -0.93135
   C      -10.62124        -1.84437        -0.21197
   N      -11.23433        -2.58897         0.41519
   C       -9.74238         0.28851        -0.16922
   N       -9.67105         1.19260         0.54001
   C       -9.43879        -2.35074        -2.93399
   C       -8.66229        -2.21446        -4.11025
   C       -8.50445        -3.23944        -5.00806
   C       -9.14369        -4.45611        -4.73369
   C       -9.92715        -4.57451        -3.56380
   C      -10.08678        -3.53668        -2.65286
   S      -10.64049        -6.15216        -3.42704
   C       -9.88400        -6.62965        -4.92145
   C       -9.13600        -5.65703        -5.49515
  Br      -10.15115        -8.36562        -5.58041
   C       -8.14183        -0.82443        -4.19410
   O       -7.56316        -0.34077        -5.14593
   C       -8.61570        -0.16117        -2.97193
   C       -8.50589         1.17900        -2.63715
   C       -7.55949         2.13353        -2.96181
   S       -7.89574         3.73972        -2.34660
   C       -6.31620         4.35954        -2.71954
   C       -5.58925         3.35990        -3.41773
   C       -6.25547         2.11439        -3.51050
   N       -5.62703         1.02744        -3.99035
   C       -4.42252         1.19456        -4.46656
   O       -3.75472         0.18100        -4.99099
   C       -4.44478        -1.06837        -5.04399
   C       -3.62738        -2.02318        -5.89327
   C       -3.76457         2.48583        -4.42953
   O       -2.54588         2.57005        -4.94830
   C       -1.92216         3.84997        -4.88803
   C       -0.54930         3.73652        -5.52401
   N       -4.33509         3.52836        -3.88468
   C       -5.83399         5.57236        -2.24411
   C       -6.47451         6.34336        -1.28312
   C       -5.98693         7.44283        -0.54501
   C       -6.78835         7.82299         0.50460
   C       -7.95456         7.05206         0.62948
   S       -8.03781         5.88812        -0.66971
   C       -8.94386         6.93911         1.60444
   C       -9.18785         7.65482         2.78900
   C      -10.19872         7.11791         3.53959
   C      -10.78773         5.95621         2.98393
   S      -10.07547         5.61419         1.43507
   C      -11.65879         5.10602         3.63734
   C      -12.14582         3.87027         3.20910
   S      -12.74774         2.76240         4.41240
   C      -13.02137         1.47933         3.27175
   C      -12.71888         1.92885         1.97295
   C      -12.20727         3.25296         1.94049
   N      -11.86664         3.84504         0.77678
   C      -11.94850         3.11435        -0.30040
   O      -11.69536         3.58329        -1.50818
   C      -11.41612         4.97324        -1.64280
   C      -11.34396         5.29403        -3.12402
   C      -12.40203         1.73214        -0.25476
   O      -12.37553         1.11069        -1.42414
   C      -13.09067        -0.11193        -1.59685
   C      -14.37794         0.17078        -2.35766
   N      -12.81328         1.17732         0.84919
   C      -13.25713         0.18577         3.75809
   C      -13.62583        -0.94720         3.08638
   C      -14.31575        -1.17446         1.84843
   C      -15.25196        -0.34573         1.27887
   C      -16.10863        -0.76159         0.24343
   N      -16.84416        -1.07791        -0.58052
   C      -15.52398         0.95440         1.74027
   N      -15.78114         2.02070         2.08138
   C      -14.04002        -2.54932         1.44532
   C      -13.39360        -3.21643         2.51467
   C      -13.23006        -2.27344         3.63910
   O      -12.82469        -2.50109         4.75549
   C      -12.95042        -4.51152         2.41276
   C      -13.12935        -5.16578         1.18902
   C      -13.76441        -4.48494         0.12559
   C      -14.24121        -3.18484         0.23699
   S      -13.83067        -5.46239        -1.30986
   C      -13.02692        -6.76199        -0.46812
   C      -12.72150        -6.47775         0.81900
  Br      -12.67547        -8.37021        -1.36605
   H       -7.90925        -3.11222        -5.89888
   H      -10.69809        -3.67201        -1.77596
   H       -8.60150        -5.78076        -6.41925
   H       -9.28153         1.55437        -1.97645
   H       -5.44496        -0.90131        -5.45939
   H       -4.56553        -1.44678        -4.02198
   H       -4.11801        -2.99146        -5.92847
   H       -2.63273        -2.14326        -5.47222
   H       -3.53100        -1.63593        -6.90353
   H       -1.85367         4.16270        -3.83963
   H       -2.55009         4.57667        -5.41644
   H        0.05109         3.00701        -4.98794
   H       -0.05041         4.70077        -5.49384
   H       -0.64254         3.41504        -6.55740
   H       -4.84329         5.85857        -2.56811
   H       -5.04043         7.89995        -0.77448
   H       -6.53938         8.60704         1.19760
   H       -8.61672         8.52175         3.07035
   H      -10.51626         7.50589         4.49174
   H      -11.91037         5.37722         4.65596
   H      -10.46455         5.19248        -1.15235
   H      -12.20378         5.54554        -1.14029
   H      -10.56015         4.70403        -3.59019
   H      -11.12192         6.34835        -3.25706
   H      -12.28884         5.06335        -3.60800
   H      -13.27552        -0.56697        -0.62207
   H      -12.44038        -0.76459        -2.18663
   H      -15.01165         0.85001        -1.79237
   H      -14.92542        -0.75106        -2.52958
   H      -14.14376         0.63018        -3.31471
   H      -12.99125         0.02497         4.79952
   H      -12.45658        -4.99826         3.23896
   H      -14.71368        -2.70081        -0.60236
   H      -12.22419        -7.16206         1.48206
*
