# ORCA input file
# SCF done       -186.487044020085          0.000849598510
! CAM-B3LYP def2-SVP def2/J RIJCOSX Grid4 TightSCF
%maxcore 5000
%tddft
    Mode sTDDFT
    Ethresh 5.0
    maxcore 5000
end

%pal
  nprocs 6
  end
* xyz 0 1
   C       -3.48450         3.18278         4.09102
   C       -3.96649         3.16541         5.37350
   C       -3.25297         2.64506         6.47452
   N       -2.73388         2.23039         7.41047
   C       -5.24610         3.59276         5.78932
   N       -6.27312         3.86606         6.22402
   C       -2.19768         2.64057         3.66676
   C       -2.08966         2.79130         2.26173
   C       -0.99263         2.37714         1.54685
   C        0.03684         1.74459         2.24874
   C       -0.09314         1.56112         3.64677
   C       -1.18838         2.01616         4.37329
   S        1.25186         0.68893         4.30214
   C        1.96198         0.57898         2.71654
   C        1.23484         1.17652         1.74113
  Br        3.58403        -0.32768         2.47375
   C       -3.32598         3.38295         1.74150
   O       -3.58380         3.57642         0.56344
   C       -4.17112         3.66735         2.90640
   C       -5.37915         4.32193         2.89696
   C       -6.16132         4.72328         1.80412
   C       -7.41855         5.36883         1.89874
   N       -7.93267         5.83752         3.15036
   O       -7.13333         6.26577         3.95694
   O       -9.13106         5.78871         3.32049
   C       -8.08636         5.54500         0.68993
   C       -9.40532         6.20762         0.49912
   C       -7.32730         5.04405        -0.38556
   S       -5.82018         4.35648         0.14397
   C       -7.67100         5.10674        -1.74323
   C       -6.89008         4.66180        -2.78765
   C       -7.17429         4.78712        -4.17333
   C       -6.19224         4.31479        -4.99256
   C       -5.09261         3.77333        -4.29139
   S       -5.34530         3.88283        -2.56916
   C       -3.91287         3.20998        -4.75039
   C       -3.40771         3.02426        -6.05276
   C       -2.18188         2.42197        -6.08023
   C       -1.67863         2.06321        -4.80494
   S       -2.78368         2.59424        -3.56667
   C       -0.54022         1.31960        -4.55383
   C       -0.20623         0.75571        -3.32342
   C        0.76113        -0.23629        -3.02545
   N        1.73632        -0.64542        -3.96765
   O        1.89164         0.03707        -4.96724
   O        2.38134        -1.64863        -3.73259
   C        0.62945        -0.81202        -1.74475
   C        1.47429        -1.90666        -1.20818
   C       -0.44136        -0.26649        -1.03828
   S       -1.16887         1.05991        -1.91321
   C       -0.96979        -0.64101         0.21373
   C       -2.22957        -0.39435         0.68943
   C       -3.45713         0.00828         0.03559
   C       -3.82304        -0.24592        -1.26403
   C       -5.01154         0.21360        -1.86051
   N       -5.93237         0.60301        -2.42663
   C       -3.06895        -1.05367        -2.14032
   N       -2.51871        -1.76063        -2.85873
   C       -4.37814         0.45371         1.07233
   C       -3.83629         0.11518         2.33806
   C       -2.48006        -0.43649         2.14985
   O       -1.69172        -0.77524         3.00765
   C       -4.53359         0.29942         3.50801
   C       -5.81229         0.86404         3.42695
   C       -6.32378         1.23500         2.15984
   C       -5.62990         1.03071         0.97512
   S       -7.90680         1.93987         2.29542
   C       -7.86667         1.72584         4.02766
   C       -6.72507         1.15044         4.47798
  Br       -9.32350         2.28434         5.05570
   H       -0.94250         2.52277         0.47871
   H       -1.23280         1.85680         5.43738
   H        1.52718         1.20792         0.70740
   H       -5.79411         4.57554         3.86552
   H       -9.78729         6.60811         1.43314
   H      -10.12907         5.48212         0.12930
   H       -9.32320         7.01108        -0.23151
   H       -8.61945         5.55931        -1.99823
   H       -8.09037         5.23265        -4.51928
   H       -6.23236         4.33600        -6.06674
   H       -3.95345         3.32931        -6.92746
   H       -1.63648         2.19309        -6.97837
   H        0.09262         1.07520        -5.39596
   H        2.52841        -1.69367        -1.37773
   H        1.25740        -2.83445        -1.73662
   H        1.29822        -2.05668        -0.14741
   H       -0.30276        -1.12577         0.91885
   H       -4.11269         0.00525         4.45741
   H       -6.05956         1.31951         0.03083
   H       -6.53869         0.93697         5.51468
*
