# ORCA input file
# SCF done       -192.000541256091          0.000449109628
! CAM-B3LYP def2-SVP def2/J RIJCOSX Grid4 TightSCF
%maxcore 5000
%tddft
    Mode sTDDFT
    Ethresh 5.0
    maxcore 5000
end

%pal
  nprocs 6
  end
* xyz 0 1
   C       -8.47978        -0.67596        -2.47480
   C       -9.46730        -0.80082        -3.41629
   C       -9.38598        -1.65313        -4.53755
   N       -9.37377        -2.32403        -5.46872
   C      -10.69695        -0.10872        -3.39407
   N      -11.71479         0.41957        -3.44714
   C       -7.22140        -1.40938        -2.45198
   C       -6.51415        -1.06643        -1.27237
   C       -5.28148        -1.59192        -0.96756
   C       -4.71933        -2.50106        -1.86941
   C       -5.43218        -2.83710        -3.04609
   C       -6.67835        -2.30535        -3.35404
   S       -4.55250        -3.97049        -4.02418
   C       -3.25737        -3.97994        -2.85641
   C       -3.47114        -3.17599        -1.78734
  Br       -1.74491        -5.04436        -3.16211
   C       -7.30279        -0.10314        -0.48607
   O       -6.97752         0.41574         0.56354
   C       -8.52342         0.16075        -1.28917
   C       -9.39000         1.18860        -1.05940
   C       -9.48167         1.95465         0.13109
   S       -9.75305         3.67128        -0.00976
   C       -9.67380         3.89267         1.70819
   C       -9.50028         2.66887         2.34763
   C       -9.39415         1.58616         1.46414
   C       -9.41367         0.18443         1.99566
   F      -10.72838        -0.17216         2.22117
   C       -8.60547         0.18300         3.29311
   F       -8.47407        -1.08709         3.79169
   C       -9.23097         1.10304         4.34438
   F      -10.47868         0.66583         4.70110
   C       -9.34715         2.54738         3.83605
   F       -8.19885         3.22727         4.21734
   C       -9.77627         5.16513         2.32476
   C       -9.90242         6.32037         1.62677
   C      -10.02249         7.63618         2.13852
   S      -10.45888         8.88635         1.00377
   C      -10.47709        10.10894         2.23467
   C      -10.15077         9.55049         3.46659
   C       -9.86734         8.17577         3.41004
   C       -9.42535         7.40255         4.61764
   F      -10.44848         6.59588         5.07290
   C       -8.98505         8.36996         5.72118
   F       -8.70047         7.68365         6.87100
   C      -10.02477         9.46135         5.97215
   F      -11.26957         8.94399         6.20720
   C      -10.09893        10.35506         4.72985
   F       -8.97807        11.17284         4.73186
   C      -10.78392        11.45950         1.94569
   C      -11.01991        11.91505         0.68860
   C      -11.34611        13.24424         0.34613
   S      -11.54515        14.45834         1.58086
   C      -11.88377        15.64386         0.39236
   C      -11.83530        15.17615        -0.88514
   C      -12.15503        16.05260        -2.05105
   C      -11.51900        13.78338        -0.93665
   C      -11.39536        12.96624        -2.10865
   C      -11.08850        13.37021        -3.36156
   C      -10.94141        12.50965        -4.49557
   C      -11.08977        11.16599        -4.51872
   C      -10.90020        10.38829        -5.70348
   C      -11.02058         9.05225        -5.78626
   C      -11.39603         8.17969        -4.62570
   C      -10.77559         8.30707        -7.07956
   N      -10.17792         9.05680        -8.15017
   C      -10.92977         9.90128        -8.93474
   C      -10.44986        10.92594        -9.63151
   H       -4.76876        -1.31188        -0.06082
   H       -7.17929        -2.58868        -4.26453
   H       -2.77758        -3.06174        -0.97447
   H      -10.02189         1.52587        -1.87224
   H       -9.02347        -0.56159         1.30108
   H       -7.59299         0.53690         3.05637
   H       -8.62426         1.08827         5.25965
   H      -10.17754         3.03419         4.36655
   H       -9.76911         5.15871         3.40072
   H       -9.95053         6.25194         0.54565
   H       -8.59401         6.72413         4.37934
   H       -8.05226         8.86221         5.41117
   H       -9.74852        10.04955         6.85618
   H      -10.96575        11.02341         4.81104
   H      -10.80712        12.14950         2.77718
   H      -10.94655        11.20377        -0.12385
   H      -12.11413        16.64354         0.70632
   H      -12.68908        16.93738        -1.71180
   H      -12.77393        15.52019        -2.77018
   H      -11.24406        16.38233        -2.55011
   H      -11.52936        11.90731        -1.94006
   H      -10.89119        14.41358        -3.55132
   H      -10.67270        13.00264        -5.42197
   H      -11.34935        10.63390        -3.61599
   H      -10.64113        10.94832        -6.59268
   H      -10.58992         8.15105        -3.89223
   H      -11.58939         7.16254        -4.95729
   H      -12.28832         8.55429        -4.12811
   H      -11.73318         7.90852        -7.43742
   H      -10.12883         7.44705        -6.86419
   H       -9.23975         9.38353        -7.96304
   H      -11.97438         9.62606        -8.99649
   H       -9.41175        11.20844        -9.58172
   H      -11.07761        11.49519       -10.28963
*
