# ORCA input file
# SCF done       -229.521007372967          0.000820203085
! CAM-B3LYP def2-SVP def2/J RIJCOSX Grid4 TightSCF
%maxcore 5000
%tddft
    Mode sTDDFT
    Ethresh 5.0
    maxcore 5000
end

%pal
  nprocs 6
  end
* xyz 0 1
   C      -14.11353       -11.02101        14.27702
   C      -14.88304       -11.79962        13.43850
   C      -15.09561       -13.17925        13.61649
   N      -15.30621       -14.30629        13.69968
   C      -15.57955       -11.34615        12.30236
   N      -16.17895       -11.06975        11.36059
   C      -13.42046       -11.51138        15.46910
   C      -12.78197       -10.41750        16.10067
   C      -12.04240       -10.55206        17.24850
   C      -11.92084       -11.83294        17.80037
   C      -12.55833       -12.91952        17.16099
   C      -13.31148       -12.78143        15.99996
   S      -12.27373       -14.41361        18.00383
   C      -11.31368       -13.56605        19.18707
   C      -11.21139       -12.23484        18.96605
  Br      -10.53633       -14.52030        20.60405
   C      -13.04105        -9.18790        15.31834
   O      -12.64117        -8.07088        15.59088
   C      -13.85790        -9.61250        14.16979
   C      -14.26409        -8.77409        13.14182
   C      -13.99151        -7.41890        13.06797
   C      -14.36577        -6.62583        11.99049
   C      -14.10763        -5.25400        11.82497
   C      -14.56128        -4.73945        10.63701
   C      -15.19802        -5.68694         9.82294
   S      -15.22284        -7.24929        10.60026
   C      -15.73258        -5.50350         8.54556
   C      -15.72343        -4.34172         7.76165
   C      -16.28628        -4.51236         6.51986
   C      -16.76716        -5.80674         6.28457
   S      -16.49397        -6.81412         7.68849
   C      -17.35239        -6.29170         5.11585
   C      -17.82800        -7.57334         4.96816
   C      -18.34130        -8.10985         3.79004
   C      -18.82959        -9.41655         3.62352
   C      -19.21879        -9.70807         2.34362
   C      -19.04273        -8.63988         1.44600
   S      -18.40513        -7.23944         2.27759
   C      -19.25563        -8.64001         0.07482
   C      -19.69918        -9.72265        -0.72185
   C      -19.71909        -9.45742        -2.05388
   C      -19.28040        -8.14410        -2.38889
   S      -18.90469        -7.24650        -0.91196
   C      -19.17773        -7.60500        -3.63054
   C      -18.71562        -6.25396        -3.89385
   C      -19.54886        -5.39624        -4.62806
   C      -19.26075        -4.05999        -4.80147
   C      -18.11085        -3.50821        -4.24329
   C      -17.25174        -4.34054        -3.56532
   C      -17.51912        -5.71032        -3.41744
   N      -16.41909        -6.33415        -2.84774
   C      -16.16719        -7.74726        -2.76058
   C      -15.43682        -5.43037        -2.53305
   O      -14.35298        -5.71009        -2.08530
   C      -15.95615        -4.03731        -2.87909
   C      -16.18229        -3.22659        -1.57913
   C      -17.29567        -3.90960        -0.78331
   O      -17.25714        -4.99417        -0.25278
   N      -18.38678        -3.08598        -0.80769
   C      -19.65262        -3.43532        -0.22339
   C      -18.10706        -1.89070        -1.45082
   C      -18.94036        -0.82159        -1.69468
   C      -18.41248         0.30460        -2.34485
   C      -17.07098         0.30882        -2.73998
   C      -16.25082        -0.78710        -2.52161
   C      -16.77116        -1.88785        -1.87778
   C      -19.29238         1.42549        -2.58987
   C      -18.90358         2.69328        -2.84129
   C      -19.76674         3.78210        -3.15002
   C      -21.09290         3.98318        -2.92091
   C      -22.09300         3.33036        -2.10177
   C      -21.88735         2.65900        -0.92320
   C      -22.91986         2.10128        -0.14271
   N      -23.71334         1.59979         0.51870
   C      -20.62617         2.48833        -0.31972
   N      -19.62810         2.33419         0.22597
   C      -23.40077         3.71765        -2.62271
   C      -23.22635         4.75623        -3.57163
   C      -21.78548         5.02784        -3.73081
   O      -21.26061         5.88066        -4.40823
   C      -24.28180         5.35369        -4.21652
   C      -25.57018         4.89571        -3.92152
   C      -25.73370         3.84900        -2.98237
   C      -24.66696         3.25171        -2.32215
   S      -27.40728         3.42920        -2.77926
   C      -27.85914         4.65000        -3.94007
   C      -26.81195         5.33746        -4.45455
  Br      -29.66895         4.89757        -4.36476
   H      -11.56818        -9.69805        17.70632
   H      -13.77586       -13.64337        15.55124
   H      -10.65871       -11.56196        19.59610
   H      -14.82282        -9.20775        12.32136
   H      -13.44819        -6.94625        13.87341
   H      -13.59145        -4.68429        12.57691
   H      -14.44661        -3.71190        10.34201
   H      -15.30134        -3.41659         8.10994
   H      -16.35964        -3.73706         5.77774
   H      -17.41612        -5.60916         4.27756
   H      -17.79154        -8.23751         5.82290
   H      -18.87307       -10.11084         4.44381
   H      -19.60866       -10.66070         2.03420
   H      -19.98072       -10.66582        -0.28940
   H      -20.01219       -10.15924        -2.81428
   H      -19.57344        -8.16739        -4.46638
   H      -20.46255        -5.80368        -5.03528
   H      -19.93647        -3.43401        -5.36351
   H      -17.88976        -2.45881        -4.36180
   H      -16.54451        -8.25176        -3.65047
   H      -16.62575        -8.18420        -1.87286
   H      -15.08656        -7.87498        -2.68754
   H      -15.23768        -3.50525        -3.50720
   H      -15.24655        -3.20029        -1.01630
   H      -19.52710        -4.39614         0.27474
   H      -20.41783        -3.52671        -0.99738
   H      -19.95988        -2.68215         0.50397
   H      -19.97144        -0.82953        -1.37721
   H      -16.67140         1.16558        -3.25804
   H      -15.22409        -0.77625        -2.85457
   H      -20.34914         1.18961        -2.58376
   H      -17.84757         2.92093        -2.88520
   H      -19.31072         4.57533        -3.73771
   H      -24.11924         6.14805        -4.92785
   H      -24.84088         2.45397        -1.61908
   H      -26.90893         6.12324        -5.18120
*
