# ORCA input file
# SCF done       -190.062139266923          0.004097875373
! CAM-B3LYP def2-SVP def2/J RIJCOSX Grid4 TightSCF
%maxcore 5000
%tddft
    Mode sTDDFT
    Ethresh 5.0
    maxcore 5000
end

%pal
  nprocs 6
  end
* xyz 0 1
   C       -4.68379         3.13382         5.98836
   C       -3.38981         3.56028         6.14364
   C       -2.58664         3.25315         7.26111
   N       -1.88790         3.02936         8.14492
   C       -2.67565         4.30298         5.17995
   N       -2.02693         4.88553         4.43216
   C       -5.42097         2.27461         6.90205
   C       -6.63714         1.90008         6.28250
   C       -7.56273         1.09613         6.90001
   C       -7.27113         0.63717         8.18910
   C       -6.05073         1.01445         8.79823
   C       -5.11515         1.83046         8.17484
   S       -5.89269         0.33402        10.38957
   C       -7.44637        -0.43983        10.21623
   C       -8.05383        -0.20087         9.03010
  Br       -8.11812        -1.48927        11.61757
   C       -6.71258         2.49644         4.93420
   O       -7.57396         2.28463         4.10937
   C       -5.52357         3.37682         4.83145
   C       -5.36166         4.43746         3.98397
   C       -6.10963         4.77502         2.83931
   S       -6.32850         6.46176         2.50144
   C       -7.42069         6.17469         1.19369
   C       -7.53305         4.79077         0.94893
   C       -6.77144         4.00328         1.87029
   C       -6.66075         2.61216         1.69457
   C       -7.39397         2.01291         0.71004
   F       -7.32154         0.68618         0.52686
   C       -8.20439         2.77663        -0.15613
   F       -8.90611         2.15233        -1.11646
   C       -8.25268         4.13938        -0.06936
   C       -8.06723         7.31913         0.66292
   C       -9.09624         7.39292        -0.21587
   C       -9.75301         8.63602        -0.45724
   C      -10.88724         8.84112        -1.15150
   C      -11.64116         7.82138        -1.93575
   C      -11.49777        10.23099        -1.12950
   N      -10.66250        11.20300        -1.79547
   C       -9.69365        11.87651        -1.17642
   C       -8.82271        12.73397        -1.79620
   C       -7.77675        13.41233        -1.15731
   C       -7.20268        13.13964         0.06560
   C       -6.23296        13.93160         0.71715
   C       -5.81670        13.44419         1.92299
   C       -6.41641        12.21945         2.27737
   S       -7.52977        11.70971         1.04333
   C       -6.24580        11.49152         3.44710
   C       -5.60187        11.89092         4.62853
   C       -5.72353        10.98682         5.64618
   C       -6.47394         9.83730         5.32321
   S       -6.96562         9.90790         3.65621
   C       -6.68807         8.78249         6.20652
   C       -7.39608         7.60380         6.08310
   C       -8.32888         7.11371         5.16882
   C       -9.21939         7.70826         4.23547
   C       -9.62026         9.03748         4.18406
   C      -10.31754         9.60233         3.10943
   N      -10.81375        10.12846         2.21225
   C       -9.40963         9.92417         5.25411
   N       -9.29683        10.65257         6.13572
   C       -9.79949         6.63859         3.42066
   C       -9.35630         5.39345         3.92921
   C       -8.45690         5.64743         5.07383
   O       -7.89894         4.81821         5.77267
   C       -9.74339         4.19371         3.38999
   C      -10.59287         4.22411         2.27815
   C      -11.04909         5.46785         1.79548
   C      -10.67903         6.68441         2.35977
   S      -12.08960         5.26668         0.41773
   C      -11.88740         3.53429         0.50251
   C      -11.09104         3.12931         1.51706
  Br      -12.75034         2.44675        -0.76046
   H       -8.48328         0.82716         6.40642
   H       -4.20253         2.09940         8.68102
   H       -9.01500        -0.59735         8.75782
   H       -4.64302         5.19429         4.27994
   H       -6.00040         2.02332         2.30700
   H       -8.82009         4.68401        -0.80217
   H       -7.72531         8.25196         1.09880
   H       -9.50077         6.50895        -0.67824
   H       -9.31453         9.48161         0.05646
   H      -11.82765         8.18656        -2.94733
   H      -12.61129         7.63768        -1.46932
   H      -11.11138         6.87720        -2.00308
   H      -11.61868        10.54249        -0.08764
   H      -12.47592        10.22102        -1.61523
   H      -10.67185        11.20655        -2.80687
   H       -9.68212        11.76800        -0.10153
   H       -8.96980        12.94197        -2.84809
   H       -7.33731        14.24251        -1.69678
   H       -5.87928        14.85111         0.28433
   H       -5.08652        13.92191         2.55043
   H       -5.10292        12.83879         4.71675
   H       -5.32274        11.13042         6.63346
   H       -6.13287         8.88884         7.13173
   H       -7.13544         6.84869         6.82159
   H       -9.38640         3.25984         3.79032
   H      -11.06101         7.60823         1.95955
   H      -10.85382         2.10209         1.72311
*
