# ORCA input file
# SCF done       -196.262666262838          0.000996108591
! CAM-B3LYP def2-SVP def2/J RIJCOSX Grid4 TightSCF
%maxcore 5000
%tddft
    Mode sTDDFT
    Ethresh 5.0
    maxcore 5000
end

%pal
  nprocs 6
  end
* xyz 0 1
   C       -6.43131         1.86481         1.28422
   C       -7.72790         1.71402         0.86446
   C       -8.80084         2.50691         1.31814
   N       -9.70797         3.12438         1.65623
   C       -8.15256         0.69457        -0.01289
   N       -8.56302        -0.14049        -0.68567
   C       -5.96125         2.77908         2.31613
   C       -4.61733         2.45361         2.62403
   C       -3.88999         3.14066         3.56461
   C       -4.51721         4.20138         4.22831
   C       -5.85834         4.52084         3.90938
   C       -6.59673         3.82237         2.96130
   S       -6.43107         5.87401         4.83655
   C       -4.88363         5.98937         5.63160
   C       -3.98286         5.06356         5.22463
  Br       -4.60257         7.32292         6.92013
   C       -4.17383         1.32696         1.77554
   O       -3.08128         0.79821         1.79664
   C       -5.30779         1.05302         0.86806
   C       -5.23362         0.35418        -0.30717
   C       -4.18033        -0.47681        -0.74528
   S       -3.79943        -0.44961        -2.45154
   C       -2.41404        -1.42308        -2.18937
   C       -2.25327        -1.80127        -0.89211
   C       -1.14147        -2.67276        -0.41422
   C       -3.28887        -1.29759        -0.04825
   C       -3.44701        -1.73296         1.30462
   C       -4.63934        -1.87198         1.93888
   C       -4.76623        -2.37296         3.25248
   C       -5.98256        -2.53986         3.85052
   C       -6.28655        -3.06803         5.11790
   S       -7.93203        -2.89557         5.65564
   C       -7.64427        -3.69764         7.17049
   C       -6.28849        -4.10448         7.24614
   C       -5.52671        -3.76069         6.08998
   C       -4.18325        -4.16610         6.01524
   C       -3.62728        -4.84702         7.06376
   F       -2.34497        -5.23690         6.98933
   C       -4.37489        -5.15516         8.21633
   F       -3.78803        -5.81983         9.21964
   C       -5.69309        -4.79753         8.30996
   C       -8.64267        -3.90045         8.11841
   C       -9.95244        -3.49412         7.96411
   C      -11.00664        -3.69002         8.85014
   C      -11.03555        -4.33284        10.07874
   C      -12.19512        -4.48274        10.86796
   C      -12.00472        -5.16409        12.03819
   C      -10.67773        -5.58450        12.23601
   S       -9.68214        -5.09004        10.89208
   C      -10.15427        -6.29300        13.31111
   C      -10.84008        -6.76766        14.44431
   C      -10.04015        -7.43593        15.32893
   C       -8.68791        -7.51182        14.93747
   S       -8.46222        -6.72067        13.39734
   C       -7.66207        -8.12749        15.63373
   C       -6.33854        -8.12444        15.21578
   C       -5.25547        -8.73717        15.81308
   C       -5.15932        -9.75066        16.82444
   C       -6.09364       -10.71632        17.12744
   C       -5.91335       -11.70123        18.11679
   N       -5.83300       -12.51363        18.92526
   C       -7.29248       -10.91557        16.41632
   N       -8.26426       -11.15911        15.85381
   C       -3.78964        -9.72492        17.34080
   C       -3.01767        -8.85519        16.53116
   C       -3.89366        -8.24646        15.50680
   O       -3.57660        -7.47265        14.62924
   C       -1.67762        -8.64558        16.74066
   C       -1.07110        -9.31754        17.80834
   C       -1.85295       -10.17227        18.61875
   C       -3.20886       -10.39181        18.40082
   S       -0.90761       -10.89118        19.88768
   C        0.50719       -10.04707        19.31620
   C        0.28536        -9.26617        18.23311
  Br        2.14299       -10.27461        20.20645
   H       -2.86768         2.87250         3.78026
   H       -7.61336         4.10580         2.74434
   H       -2.98148         4.99205         5.60814
   H       -6.00664         0.53605        -1.04654
   H       -1.78362        -1.66950        -3.02186
   H       -0.46360        -2.90348        -1.23160
   H       -1.53461        -3.60585        -0.01249
   H       -0.58244        -2.16992         0.37356
   H       -2.54605        -2.05141         1.81002
   H       -5.55344        -1.62608         1.41368
   H       -3.85180        -2.60259         3.77558
   H       -6.84972        -2.20854         3.28902
   H       -3.57914        -3.97728         5.14612
   H       -6.25009        -5.05971         9.19436
   H       -8.34853        -4.41622         9.01898
   H      -10.19479        -2.96942         7.04778
   H      -11.96536        -3.29240         8.53989
   H      -13.14334        -4.08601        10.55029
   H      -12.78253        -5.36737        12.75136
   H      -11.89460        -6.61162        14.58304
   H      -10.38362        -7.87940        16.24620
   H       -7.93284        -8.59868        16.56729
   H       -6.08589        -7.49413        14.36755
   H       -1.11309        -7.98411        16.10246
   H       -3.76323       -11.05030        19.04869
   H        1.04432        -8.67679        17.75180
*
