# ORCA input file
# SCF done       -196.064714129684          0.000926082048
! CAM-B3LYP def2-SVP def2/J RIJCOSX Grid4 TightSCF
%maxcore 5000
%tddft
    Mode sTDDFT
    Ethresh 5.0
    maxcore 5000
end

%pal
  nprocs 6
  end
* xyz 0 1
   C       -6.84508        -2.11420         0.58940
   C       -6.10369        -2.37685         1.71082
   C       -5.86798        -3.67201         2.21642
   N       -5.64616        -4.70289         2.67004
   C       -5.51447        -1.38828         2.52719
   N       -5.03774        -0.63240         3.24791
   C       -7.56301        -3.09526        -0.21309
   C       -8.35851        -2.41165        -1.16515
   C       -9.15994        -3.06811        -2.06697
   C       -9.17664        -4.46621        -2.02869
   C       -8.37252        -5.14088        -1.07900
   C       -7.56288        -4.47738        -0.16603
   S       -8.53349        -6.86587        -1.21559
   C       -9.66495        -6.65988        -2.52602
   C       -9.91094        -5.36751        -2.84703
  Br      -10.41307        -8.17027        -3.34860
   C       -8.15039        -0.95393        -1.03365
   O       -8.63678        -0.09122        -1.73046
   C       -7.14679        -0.79936         0.05330
   C       -6.49866         0.36150         0.33759
   C       -6.85495         1.65555        -0.17051
   C       -5.85958         2.44316        -0.69435
   S       -6.41903         3.82708        -1.51872
   C       -8.05847         3.42424        -1.09441
   C       -8.15879         2.25868        -0.32375
   C       -9.40916         1.92384         0.25524
   C       -9.44916         0.91091         1.37124
   C       -8.60070         1.35621         2.56405
   C      -10.55150         2.61213        -0.13633
   C      -11.90409         2.28060         0.43855
   C      -12.18185         3.11151         1.69318
   C      -10.45830         3.70626        -1.03139
   C      -11.47450         4.59742        -1.53974
   C      -10.94158         5.64678        -2.22824
   S       -9.23003         5.61444        -2.36172
   C       -9.18746         4.14650        -1.43781
   C      -12.92138         4.49423        -1.46743
   C      -13.69923         5.55079        -1.18016
   C      -15.11882         5.54523        -1.29887
   O      -15.80869         4.41202        -1.59037
   C      -15.99872         6.60701        -1.28589
   C      -16.10706         8.05748        -1.12948
   O      -15.29329         8.89595        -0.83733
   N      -17.45066         8.31385        -1.40585
   C      -18.22137         7.19332        -1.72381
   O      -19.39506         7.22070        -1.99621
   C      -17.26883         6.09011        -1.64049
   C      -17.11170         4.72839        -1.82850
   C      -18.03838         3.79175        -2.33524
   C      -17.91283         2.43501        -2.36394
   C      -18.70898         1.61225        -3.19478
   C      -19.16433         2.02422        -4.42365
   C      -19.88097         1.27306        -5.39275
   C      -19.96701         1.86886        -6.61621
   C      -19.31282         3.11939        -6.68245
   S      -18.67788         3.56263        -5.11836
   C      -19.05822         3.95501        -7.75458
   C      -19.50922         3.91409        -9.09047
   C      -18.98286         4.89731        -9.87320
   C      -18.06761         5.75328        -9.20209
   S      -17.94456         5.28452        -7.52162
   C      -17.36151         6.77884        -9.77728
   C      -16.36505         7.58107        -9.18446
   S      -15.64662         8.87231       -10.14196
   C      -14.53531         9.34822        -8.92364
   C      -14.69092         8.56026        -7.80859
   C      -15.72399         7.57842        -7.95460
   O      -15.81641         6.82827        -6.83357
   C      -14.86260         7.30383        -5.99112
   N      -14.72202         6.68635        -4.73132
   O      -13.76538         7.03226        -4.05718
   O      -15.54489         5.85904        -4.39357
   C      -14.14618         8.34876        -6.51379
   H       -9.75471        -2.51921        -2.78011
   H       -6.96256        -5.03417         0.53404
   H      -10.58048        -5.06035        -3.62953
   H       -5.57176         0.31680         0.89685
   H       -4.81128         2.21136        -0.70774
   H       -9.10087        -0.06263         1.02248
   H      -10.46717         0.77268         1.72446
   H       -7.54042         1.36607         2.32489
   H       -8.74992         0.67596         3.39983
   H       -8.88730         2.35764         2.87743
   H      -11.97933         1.21778         0.66830
   H      -12.67443         2.49571        -0.29478
   H      -11.43498         2.91989         2.45962
   H      -13.16252         2.86921         2.09630
   H      -12.16142         4.17166         1.45146
   H      -11.49580         6.42251        -2.72154
   H      -13.38633         3.56343        -1.76231
   H      -13.27241         6.50369        -0.90500
   H      -17.83930         9.24548        -1.37589
   H      -18.93027         4.25517        -2.73433
   H      -17.16274         1.95540        -1.74855
   H      -18.86363         0.57814        -2.91848
   H      -20.28719         0.30400        -5.16058
   H      -20.43604         1.42482        -7.47650
   H      -20.20643         3.17050        -9.43379
   H      -19.20470         5.02891       -10.91759
   H      -17.56896         6.99387       -10.81702
   H      -13.85133        10.15159        -9.09857
   H      -13.35208         8.87597        -6.02727
*
