# ORCA input file
# SCF done       -154.184479668000          0.000995988811
! CAM-B3LYP def2-SVP def2/J RIJCOSX Grid4 TightSCF
%maxcore 5000
%tddft
    Mode sTDDFT
    Ethresh 5.0
    maxcore 5000
end

%pal
  nprocs 6
  end
* xyz 0 1
   C       -1.62365        -6.32577        -5.75560
   C       -1.50015        -4.99324        -5.68389
   C       -2.11853        -4.00713        -6.52367
   C       -1.80797        -2.73065        -6.20635
   C       -0.92510        -2.60141        -5.09703
   S       -0.49792        -4.17825        -4.47079
   C       -0.43852        -1.43736        -4.54830
   C       -0.66916        -0.10561        -4.97049
   C       -0.02409         0.82606        -4.22049
   C        0.76739         0.28957        -3.16949
   S        0.62564        -1.45303        -3.15549
   C        1.43697         1.03356        -2.22833
   C        2.27178         0.56681        -1.19172
   C        3.11735        -0.53215        -1.20958
   C        3.82424        -1.06107        -0.02416
   C        3.73344        -0.45597         1.24968
   C        3.08586         0.70867         1.44736
   S        2.20512         1.57784         0.24427
   N        4.58396        -2.10039        -0.29924
   C        4.48814        -2.29329        -1.64364
   C        3.59784        -1.35314        -2.23937
   S        3.56381        -1.51605        -3.94756
   C        4.70220        -2.86822        -3.86748
   C        5.08798        -3.14724        -2.55846
   C        5.06355        -3.46375        -5.07982
   C        5.88190        -4.55006        -5.29507
   C        6.19392        -5.08739        -6.56495
   C        7.00343        -6.18565        -6.53093
   C        7.37229        -6.57764        -5.22940
   S        6.67133        -5.49836        -4.04858
   C        8.15538        -7.65962        -4.85462
   C        8.75715        -8.62443        -5.68215
   C        9.44080        -9.58704        -4.99497
   C        9.41515        -9.42993        -3.59124
   S        8.49823        -8.00348        -3.17130
   C       10.01127       -10.29464        -2.69436
   C       10.03921       -10.23816        -1.29866
   C       10.64935       -11.24172        -0.54250
   C       10.72837       -11.28377         0.92644
   C       10.18453       -10.26127         1.73443
   C        9.55084        -9.19509         1.20654
   S        9.29226        -8.88801        -0.47536
   N       11.34557       -12.35969         1.37887
   C       11.70269       -13.07573         0.27796
   C       11.29616       -12.41878        -0.91967
   S       11.74356       -13.31421        -2.31808
   C       12.46725       -14.57430        -1.30479
   C       12.35418       -14.28223         0.05018
   C       13.04179       -15.66811        -1.96451
   C       13.62544       -16.78666        -1.42146
   C       14.18953       -17.84833        -2.17374
   C       14.70178       -18.86266        -1.42703
   C       14.57036       -18.66852        -0.03132
   S       13.77995       -17.13682         0.29074
   C       14.96957       -19.50999         0.98176
   C       15.62136       -20.76684         0.85417
   C       15.88628       -21.38066         2.02951
   C       15.45977       -20.65088         3.18789
   S       14.71007       -19.13152         2.67305
   C       15.57884       -21.00844         4.47436
   H       -2.24389        -6.78002        -6.50829
   H       -1.11155        -6.97882        -5.07245
   H       -2.76896        -4.30159        -7.32819
   H       -2.18233        -1.86696        -6.72706
   H       -1.29655         0.12415        -5.81287
   H       -0.07434         1.88722        -4.39043
   H        1.21040         2.09347        -2.21250
   H        4.25280        -0.93284         2.06688
   H        3.05653         1.20559         2.40317
   H        5.78154        -3.92225        -2.29344
   H        4.63586        -3.01677        -5.96926
   H        5.80788        -4.64629        -7.46726
   H        7.33579        -6.71912        -7.40312
   H        8.67114        -8.59406        -6.75348
   H        9.96066       -10.40925        -5.45399
   H       10.52030       -11.14279        -3.13496
   H       10.28667       -10.35696         2.80478
   H        9.12943        -8.41103         1.81429
   H       12.73214       -14.91813         0.82792
   H       13.01777       -15.62995        -3.04710
   H       14.19513       -17.82341        -3.24964
   H       15.16367       -19.74227        -1.83785
   H       15.87348       -21.17048        -0.11026
   H       16.37373       -22.33418         2.13047
   H       16.04072       -21.94160         4.74438
   H       15.21827       -20.38329         5.27006
*
