# ORCA input file
# SCF done       -141.017590728435          0.000390829067
! CAM-B3LYP def2-SVP def2/J RIJCOSX Grid4 TightSCF
%maxcore 5000
%tddft
    Mode sTDDFT
    Ethresh 5.0
    maxcore 5000
end

%pal
  nprocs 6
  end
* xyz 0 1
   C       -1.29172        -0.61284        -3.86576
   S       -2.63477        -1.61781        -3.55804
   C       -1.63594        -2.97199        -3.12808
   C       -0.28528        -2.62368        -3.23786
   C       -0.09210        -1.26211        -3.66634
   C        1.23008        -0.73962        -3.79599
   C        1.52687         0.63040        -4.28310
   O        2.44625         1.28812        -3.87982
   O        0.72425         1.10172        -5.26264
   C        2.29013        -1.54449        -3.46315
   C        2.10971        -2.88584        -3.10507
   C        0.85592        -3.44252        -3.02604
   O        0.67546        -4.76009        -2.77556
   C       -2.24773        -4.15151        -2.61848
   S       -1.54943        -5.04603        -1.31839
   C       -2.88912        -6.13731        -1.19453
   C       -3.87875        -5.79771        -2.12860
   C       -3.50912        -4.67560        -2.94097
   C       -4.36887        -4.24242        -3.96991
   C       -5.57354        -4.85924        -4.13621
   F       -6.40027        -4.46146        -5.11858
   C       -5.97642        -5.90748        -3.28102
   F       -7.19479        -6.45473        -3.44418
   C       -5.15246        -6.37624        -2.30043
   C       -2.78883        -7.17356        -0.22722
   C       -3.52015        -8.30840        -0.14112
   C       -3.32753        -9.25555         0.91227
   C       -4.00291       -10.40214         1.11053
   C       -5.09976       -10.93452         0.24876
   C       -3.70037       -11.22194         2.33959
   N       -4.22300       -10.54465         3.51031
   C       -4.18171       -11.04117         4.76624
   C       -3.82073       -12.30681         5.11102
   C       -3.80410       -12.83503         6.42076
   C       -4.00650       -12.22094         7.63001
   C       -3.96519       -12.87516         8.88784
   C       -4.15807       -12.06488         9.96461
   C       -4.36224       -10.70781         9.63297
   S       -4.31512       -10.50503         7.89480
   C       -4.56555        -9.63819        10.48163
   C       -4.64122        -9.64578        11.89000
   C       -4.83681        -8.41473        12.44183
   C       -4.92580        -7.35924        11.50427
   S       -4.75761        -8.00237         9.87705
   C       -5.10669        -6.02318        11.77044
   C       -5.17707        -5.02148        10.79280
   C       -5.34591        -3.69576        11.07649
   C       -5.42266        -2.63238        10.13986
   C       -5.35979        -2.74298         8.78925
   C       -5.43831        -1.65725         7.85117
   C       -5.57550        -0.35856         8.13332
   H       -1.47046         0.41221        -4.12324
   H        0.09512         0.43576        -5.56941
   H        3.28743        -1.13789        -3.52666
   H        2.97644        -3.50326        -2.91437
   H        1.52863        -5.18902        -2.62991
   H       -4.09162        -3.44053        -4.63357
   H       -5.50526        -7.16183        -1.65593
   H       -1.99652        -7.02682         0.49849
   H       -4.26242        -8.53195        -0.88821
   H       -2.55471        -8.99609         1.62756
   H       -5.33478       -10.27727        -0.58095
   H       -5.99984       -11.07899         0.84651
   H       -4.81426       -11.90679        -0.15380
   H       -2.61514       -11.36801         2.44564
   H       -4.17014       -12.20701         2.26420
   H       -4.39398        -9.55808         3.39987
   H       -4.51636       -10.34685         5.52092
   H       -3.52764       -12.99503         4.33122
   H       -3.57856       -13.89271         6.48974
   H       -3.78977       -13.93513         8.95452
   H       -4.15096       -12.40332        10.98526
   H       -4.54995       -10.55512        12.45730
   H       -4.91817        -8.22910        13.49870
   H       -5.19590        -5.73578        12.81047
   H       -5.08605        -5.34550         9.76463
   H       -5.42807        -3.41809        12.12059
   H       -5.54507        -1.64618        10.56765
   H       -5.24198        -3.72439         8.35110
   H       -5.37670        -1.94964         6.80950
   H       -5.64242         0.01193         9.14137
   H       -5.62482         0.38095         7.35303
*
