# ORCA input file
# SCF done       -205.466369023739          0.000545544623
! CAM-B3LYP def2-SVP def2/J RIJCOSX Grid4 TightSCF
%maxcore 5000
%tddft
    Mode sTDDFT
    Ethresh 5.0
    maxcore 5000
end

%pal
  nprocs 6
  end
* xyz 0 1
   C       -7.35805        -0.02212         1.89545
   C       -8.43749        -0.25873         2.70736
   C       -9.26168        -1.39314         2.58973
   N       -9.98167        -2.28399         2.49608
   C       -8.91063         0.64925         3.67715
   N       -9.35381         1.34316         4.47709
   C       -6.89660        -0.89092         0.82144
   C       -5.98053        -0.16786         0.01838
   C       -5.40358        -0.70485        -1.10686
   C       -5.74606        -2.01659        -1.45372
   C       -6.64697        -2.73546        -0.63423
   C       -7.22323        -2.19609         0.50979
   S       -6.92667        -4.33330        -1.25780
   C       -5.85344        -4.03129        -2.58301
   C       -5.30629        -2.79702        -2.56213
   C       -5.76872         1.17446         0.59757
   O       -4.98070         2.00681         0.21019
   C       -6.61463         1.21458         1.82316
   C       -6.53407         2.19054         2.77274
   C       -6.01087         3.49208         2.53243
   C       -5.31672         4.21367         3.53359
   C       -4.71167         5.49173         3.26911
   N       -4.01652         6.11080         4.22509
   C       -3.90296         5.54510         5.40896
   C       -4.51041         4.27922         5.67354
   N       -5.18512         3.64668         4.74455
   C       -4.38453         3.69500         6.96033
   N       -4.25301         3.26008         8.01146
   C       -3.17141         6.21523         6.41893
   N       -2.58278         6.73975         7.25054
   C       -4.80175         6.12589         1.98383
   C       -5.65183         5.47240         1.05963
   C       -6.22959         4.17930         1.32097
   N       -7.04267         3.79387         0.33552
   S       -7.04960         4.90885        -0.80442
   N       -6.05990         5.96130        -0.10893
   C       -4.05016         7.28334         1.74568
   C       -3.78621         7.95596         0.56669
   C       -2.85998         9.02971         0.48471
   C       -2.60047         9.46206        -0.78272
   C       -3.32115         8.74707        -1.76044
   S       -4.38252         7.56849        -1.02335
   C       -3.23521         8.80208        -3.14411
   C       -2.39735         9.56629        -3.98477
   C       -2.47239         9.21813        -5.30210
   C       -3.35997         8.14392        -5.56911
   S       -4.18069         7.68400        -4.08693
   C       -3.60331         7.53817        -6.78002
   C       -4.36170         6.35617        -6.92455
   C       -4.54180         5.34025        -5.98495
   C       -3.65335         5.07826        -4.92937
   N       -2.86260         4.77155        -4.15656
   C       -5.50553         4.38895        -6.40023
   C       -5.94980         4.61233        -7.69569
   S       -5.26998         6.03316        -8.40245
   S       -7.09496         3.43168        -8.26987
   C       -7.02866         2.66459        -6.71402
   C       -6.16884         3.28090        -5.81042
   C       -6.29401         2.74056        -4.51083
   C       -5.69708         3.30024        -3.37401
   N       -5.29941         3.83180        -2.43781
   C       -7.18495         1.67589        -4.45514
   S       -7.91576         1.36007        -6.02047
   C       -7.57867         1.03907        -3.24872
   C       -8.10071        -0.18981        -3.01952
   C       -8.17282        -1.40454        -3.80534
   C       -7.30541        -1.76008        -4.80587
   C       -7.33284        -3.00265        -5.47052
   N       -7.30830        -3.99325        -6.04939
   C       -6.19250        -0.98289        -5.18279
   N       -5.23948        -0.41241        -5.47425
   C       -9.10341        -2.30240        -3.13760
   C       -9.44507        -1.74939        -1.87321
   C       -8.79816        -0.44223        -1.72333
   O       -8.82813         0.30826        -0.77387
   C      -10.22454        -2.42064        -0.96091
   C      -10.68333        -3.69301        -1.30917
   C      -10.35958        -4.22627        -2.58212
   C       -9.57660        -3.54688        -3.50751
   S      -11.03422        -5.80926        -2.78596
   C      -11.71754        -5.75101        -1.19706
   C      -11.46287        -4.59914        -0.53886
   H       -4.71339        -0.13059        -1.70623
   H       -7.89190        -2.78907         1.11128
   H       -5.69843        -4.80964        -3.30461
   H       -4.60775        -2.43529        -3.29566
   H       -6.83819         1.98414         3.79164
   H       -3.53018         7.65729         2.62047
   H       -2.39080         9.42767         1.36746
   H       -1.90885        10.24825        -1.02795
   H       -1.75240        10.33499        -3.59806
   H       -1.88825         9.66916        -6.08456
   H       -3.22989         8.01327        -7.67647
   H       -7.50135         1.66819        -2.36296
   H      -10.45408        -1.99313         0.00264
   H       -9.35489        -3.98993        -4.46448
   H      -12.27652        -6.59836        -0.85049
   H      -11.79681        -4.38099         0.45896
*
