# ORCA input file
# SCF done       -211.505763038451          0.000214941313
! CAM-B3LYP def2-SVP def2/J RIJCOSX Grid4 TightSCF
%maxcore 5000
%tddft
    Mode sTDDFT
    Ethresh 5.0
    maxcore 5000
end

%pal
  nprocs 6
  end
* xyz 0 1
   C       -2.02043        -0.60789         0.21501
   C       -2.51039        -1.88451         0.12509
   C       -1.70293        -3.03930         0.07188
   N       -1.09618        -4.01314         0.03049
   C       -3.87899        -2.21385         0.02591
   N       -4.96681        -2.56117        -0.09373
   C       -0.61571        -0.22484         0.19009
   C       -0.53109         1.18971         0.15082
   C        0.66971         1.85661         0.11267
   C        1.84165         1.09430         0.10637
   C        1.74694        -0.31738         0.14977
   C        0.53327        -0.99314         0.19306
   S        3.31905        -1.05286         0.14328
   C        4.07340         0.50249         0.08026
   C        3.19633         1.52974         0.06588
   C       -1.88575         1.76960         0.18731
   O       -2.15910         2.94798         0.27601
   C       -2.81294         0.60707         0.23932
   C       -4.14922         0.69615         0.47801
   C       -4.92866         1.88011         0.30851
   C       -6.00055         2.17006         1.17710
   C       -6.74591         3.40115         1.08107
   N       -7.77200         3.61790         1.92003
   C       -8.04475         2.73272         2.84665
   C       -7.25912         1.54057         2.98134
   N       -6.27883         1.28618         2.15231
   C       -7.55366         0.61907         4.01760
   N       -7.82012        -0.09137         4.87575
   C       -9.13749         2.96561         3.71791
   N      -10.00689         3.13270         4.44520
   C       -6.45615         4.37872         0.09960
   C       -5.47354         4.02283        -0.84531
   C       -4.71897         2.79353        -0.74138
   N       -3.86383         2.64644        -1.75273
   S       -3.94444         3.93772        -2.69440
   N       -5.08740         4.73972        -1.90763
   C       -7.10991         5.67071         0.07261
   C       -7.35411         6.30196        -1.15861
   C       -7.91741         7.55176        -1.18344
   C       -8.29776         8.18110         0.01767
   C       -8.07196         7.56080         1.24093
   C       -7.47374         6.32047         1.26163
   C       -8.89385         9.45322        -0.29686
   C       -8.88539         9.62360        -1.69575
   C       -8.26485         8.41888        -2.37738
   C       -7.00752         8.89507        -3.13579
   C       -6.19929         7.81405        -3.84314
   C       -9.26994         7.64481        -3.25475
   C       -9.75823         8.35993        -4.50849
   C       -9.34499        10.79387        -2.24180
   C       -9.86057        11.81240        -1.41506
   C       -9.88836        11.60571        -0.02508
   C       -9.40564        10.44462         0.53405
   C      -10.33384        13.00715        -2.04665
   C      -10.73686        14.15713        -1.44011
   C      -11.20438        15.32002        -2.08713
   C      -11.50971        15.52097        -3.41223
   C      -11.94728        16.75299        -3.96598
   C      -12.21507        16.71907        -5.30038
   C      -12.01465        15.45140        -5.88856
   S      -11.46483        14.30957        -4.68085
   C      -12.18536        15.06493        -7.20144
   C      -12.54047        15.85159        -8.32105
   C      -12.59819        15.15459        -9.48579
   C      -12.29055        13.76803        -9.37132
   S      -11.94332        13.40127        -7.68730
   C      -12.34791        12.88682       -10.41361
   C      -12.08133        11.49599       -10.50310
   S      -12.91100        10.66066       -11.80354
   C      -12.19483         9.17262       -11.36738
   C      -11.34361         9.29250       -10.30757
   C      -11.26737        10.61413        -9.81008
   C      -10.33258        10.98074        -8.70080
   C       -9.24914         9.91973        -8.48410
   C       -8.15333        10.04698        -9.53598
   F       -8.58422        10.10628       -10.80141
   F       -7.43250        11.16691        -9.34039
   F       -7.27935         9.02682        -9.48153
   C       -9.86593         8.52007        -8.44414
   C      -10.52550         8.15782        -9.77195
   H        0.70245         2.93488         0.08604
   H        0.51221        -2.06948         0.23376
   H        5.14477         0.55154         0.05866
   H        3.48245         2.56538         0.02945
   H       -4.68627        -0.15862         0.86946
   H       -7.11312         5.77604        -2.06643
   H       -8.35048         8.04695         2.16354
   H       -7.26000         5.84950         2.20726
   H       -6.36141         9.39853        -2.41171
   H       -7.31819         9.64563        -3.86515
   H       -5.76255         7.12047        -3.13101
   H       -5.38784         8.28173        -4.39739
   H       -6.81044         7.25801        -4.54920
   H      -10.13306         7.40210        -2.62918
   H       -8.80474         6.70127        -3.54429
   H      -10.32898         9.24874        -4.25542
   H      -10.40921         7.69094        -5.06820
   H       -8.92837         8.64077        -5.15170
   H       -9.30771        10.96939        -3.30661
   H      -10.29374        12.37138         0.61777
   H       -9.41929        10.30543         1.60461
   H      -10.32752        12.97236        -3.12681
   H      -10.67789        14.22859        -0.36249
   H      -11.35945        16.18495        -1.45341
   H      -12.04587        17.63148        -3.35252
   H      -12.55648        17.56335        -5.87201
   H      -12.73286        16.90583        -8.23405
   H      -12.84671        15.58658       -10.43910
   H      -12.73012        13.31313       -11.33474
   H      -12.42976         8.28542       -11.92108
   H      -10.89449        11.07379        -7.76771
   H       -9.87206        11.94971        -8.90584
   H       -8.74350        10.11905        -7.53250
   H      -10.61312         8.51729        -7.64868
   H       -9.10305         7.78002        -8.19737
   H      -11.15579         7.27557        -9.64207
   H       -9.76132         7.89864       -10.51055
*
