# ORCA input file
# SCF done       -200.119567796280          0.000692754735
! CAM-B3LYP def2-SVP def2/J RIJCOSX Grid4 TightSCF
%maxcore 5000
%tddft
    Mode sTDDFT
    Ethresh 5.0
    maxcore 5000
end

%pal
  nprocs 6
  end
* xyz 0 1
   C       -4.42250       -18.17947        -2.33778
   C       -4.99086       -17.29962        -3.23072
   C       -4.89362       -17.42232        -4.63081
   N       -4.85256       -17.46426        -5.77825
   C       -5.74477       -16.15735        -2.89702
   N       -6.36839       -15.20872        -2.71628
   C       -3.63827       -19.35769        -2.70413
   C       -3.22688       -20.01527        -1.51939
   C       -2.46520       -21.15714        -1.53132
   C       -2.08778       -21.67737        -2.77449
   C       -2.50321       -21.01449        -3.95219
   C       -3.27594       -19.85895        -3.93946
   S       -1.92492       -21.82225        -5.37854
   C       -1.14284       -23.02269        -4.38496
   C       -1.30539       -22.83138        -3.05462
  Br       -0.18378       -24.41508        -5.19834
   C       -3.73879       -19.27271        -0.34779
   O       -3.56937       -19.56717         0.81984
   C       -4.47781       -18.12135        -0.89957
   C       -5.09436       -17.14847        -0.13972
   C       -5.11332       -17.10254         1.25074
   C       -5.71042       -16.07165         1.95004
   C       -5.74966       -15.90506         3.35363
   C       -6.37108       -14.76220         3.76409
   C       -6.86099       -13.97285         2.70172
   S       -6.51730       -14.73477         1.16343
   C       -7.50195       -12.74953         2.76462
   C       -7.78848       -11.96356         3.90545
   C       -8.38341       -10.77277         3.62667
   C       -8.61217       -10.55423         2.24351
   S       -8.03606       -11.93947         1.31360
   C       -9.16351        -9.45289         1.65999
   N       -9.37631        -9.34713         0.32243
   C       -9.74199        -8.21543        -0.34525
   S      -10.77505        -8.38606        -1.73673
   C      -10.85594        -6.65940        -1.87564
   N      -11.60312        -6.12134        -2.93104
   O      -11.66160        -4.90977        -3.02196
   O      -12.14573        -6.91754        -3.67777
   C      -10.13688        -6.00687        -0.91266
   C       -9.46200        -6.88007        -0.03494
   C       -8.52186        -6.35051         0.92416
   C       -7.46156        -6.98909         1.44718
   C       -6.51049        -6.39484         2.34885
   C       -6.10323        -5.08549         2.37663
   C       -5.09788        -4.54998         3.33386
   C       -4.51467        -5.34308         4.34290
   C       -4.76956        -6.66218         4.46765
   S       -5.83100        -7.56464         3.45221
   N       -4.80317        -3.29062         3.10875
   C       -5.54038        -2.91516         2.02277
   C       -6.35910        -3.96719         1.55698
   S       -7.25407        -3.48846         0.16541
   C       -6.51197        -1.89487         0.19944
   C       -5.63454        -1.75111         1.25314
   C       -6.86714        -0.97607        -0.83128
   C       -6.26703         0.21487        -1.02954
   C       -6.56692         1.16487        -2.07277
   C       -5.68312         2.24008        -2.26408
   C       -5.92084         3.15229        -3.26094
   C       -7.05273         3.03052        -4.08512
   C       -7.94173         1.98156        -3.89867
   C       -7.69210         1.06017        -2.90191
   C       -7.04956         4.12373        -5.03491
   C       -5.91572         4.91777        -4.79804
   C       -5.10236         4.36000        -3.65342
   C       -4.99116         5.36691        -2.49425
   C       -6.34987         5.82128        -1.97494
   C       -3.69209         3.95058        -4.11859
   C       -3.71556         2.94862        -5.26667
   C       -5.67094         6.03057        -5.56593
   C       -6.55447         6.37591        -6.59711
   C       -7.67959         5.57571        -6.81871
   C       -7.93446         4.45713        -6.04948
   C       -6.25961         7.55910        -7.39342
   C       -6.91726         7.98559        -8.46595
   H       -2.16726       -21.63437        -0.61086
   H       -3.56512       -19.39207        -4.86589
   H       -0.89120       -23.47535        -2.30044
   H       -5.59754       -16.34038        -0.65670
   H       -4.63022       -17.88934         1.81148
   H       -5.30997       -16.63153         4.01349
   H       -6.48769       -14.47179         4.79280
   H       -7.53535       -12.29620         4.89555
   H       -8.66136       -10.03940         4.36179
   H       -9.45146        -8.60479         2.26242
   H       -9.32968       -10.20643        -0.21473
   H      -10.06258        -4.93523        -0.86806
   H       -8.68370        -5.31255         1.17263
   H       -7.28651        -8.03598         1.23965
   H       -3.82080        -4.86252         5.01581
   H       -4.31178        -7.27638         5.22519
   H       -5.08888        -0.85023         1.45973
   H       -7.65265        -1.31014        -1.49485
   H       -5.45407         0.49669        -0.37301
   H       -4.81409         2.33043        -1.62728
   H       -8.81723         1.88449        -4.52325
   H       -8.38819         0.24930        -2.75328
   H       -4.42534         6.23552        -2.83805
   H       -4.42848         4.90348        -1.68081
   H       -6.92051         6.30391        -2.76531
   H       -6.22190         6.53004        -1.15983
   H       -6.92358         4.97314        -1.60764
   H       -3.15564         3.51819        -3.27105
   H       -3.15359         4.84762        -4.43194
   H       -4.23247         2.03805        -4.97170
   H       -2.70024         2.68926        -5.55811
   H       -4.22594         3.36723        -6.13130
   H       -4.79900         6.64430        -5.38579
   H       -8.36973         5.83812        -7.60539
   H       -8.81015         3.85344        -6.23694
   H       -5.39903         8.12362        -7.05335
   H       -7.77149         7.47133        -8.87150
   H       -6.61273         8.87520        -8.99021
*
