# ORCA input file
# SCF done       -198.862099293020          0.000803210627
! CAM-B3LYP def2-SVP def2/J RIJCOSX Grid4 TightSCF
%maxcore 5000
%tddft
    Mode sTDDFT
    Ethresh 5.0
    maxcore 5000
end

%pal
  nprocs 6
  end
* xyz 0 1
   C       -3.01051        -1.35571        -0.32655
   C       -1.87111        -1.21810         0.42127
   C       -0.93998        -2.25560         0.64149
   N       -0.14494        -3.05296         0.86486
   C       -1.44176        -0.04709         1.08178
   N       -1.00035         0.85221         1.64507
   C       -3.44349        -2.58582        -0.97413
   C       -4.72285        -2.37342        -1.53983
   C       -5.40329        -3.34959        -2.22646
   C       -4.79020        -4.59887        -2.36190
   C       -3.50741        -4.80140        -1.79848
   C       -2.82008        -3.81377        -1.10507
   S       -2.92928        -6.41412        -2.09070
   C       -4.40013        -6.78984        -2.94863
   C       -5.27908        -5.76209        -3.01724
  Br       -4.63452        -8.50169        -3.67789
   C       -5.16037        -0.98711        -1.27968
   O       -6.21072        -0.50197        -1.63882
   C       -4.03167        -0.34142        -0.56041
   C       -3.85074         0.98340        -0.30701
   C       -4.73880         2.10570        -0.40776
   C       -4.13156         3.37058        -0.53879
   C       -4.90165         4.50008        -0.62636
   C       -6.30167         4.40423        -0.50005
   C       -6.91246         3.16700        -0.33475
   C       -6.13565         2.02784        -0.30283
   C       -6.85622         5.73615        -0.53279
   C       -5.80190         6.65839        -0.67917
   C       -4.46738         5.94484        -0.75959
   C       -3.53779         6.27322         0.42864
   C       -3.02404         7.70442         0.50986
   C       -3.84992         6.25277        -2.14048
   C       -2.51495         5.58425        -2.44057
   C       -6.06735         7.99954        -0.78603
   C       -7.39178         8.46610        -0.69616
   C       -8.42716         7.52916        -0.53503
   C       -8.17260         6.17716        -0.46025
   C       -7.71447         9.86363        -0.76885
   C       -6.80839        10.87577        -0.79897
   C       -7.11302        12.24711        -0.87442
   C       -6.13685        13.21100        -0.90134
   C       -6.28140        14.61800        -0.98526
   C       -5.10471        15.30462        -0.99892
   C       -3.95972        14.47833        -0.92433
   S       -4.42693        12.79959        -0.83712
   C       -2.62402        14.82946        -0.91668
   C       -2.02450        16.10471        -0.99213
   C       -0.66376        16.07359        -0.96447
   C       -0.09884        14.77165        -0.86281
   S       -1.39096        13.59016        -0.79921
   C        1.24448        14.49699        -0.85409
   C        1.89683        13.24078        -0.76891
   C        3.29713        13.14442        -0.95341
   N        3.94977        12.01356        -0.94658
   C        3.25583        10.89385        -0.70189
   N        1.93712        10.87219        -0.46064
   C        1.27945        11.99938        -0.50257
   C        3.96493         9.65029        -0.78282
   C        3.50203         8.41479        -0.46620
   C        2.30965         7.98513         0.23916
   C        1.70617         8.63480         1.27963
   C        0.58663         8.13582         1.97147
   N       -0.34081         7.77803         2.54704
   C        2.19029         9.83621         1.84287
   N        2.57524        10.75548         2.41202
   C        2.01536         6.62700        -0.20290
   C        3.11682         6.14387        -0.95398
   C        4.14238         7.20463        -1.05690
   O        5.23593         7.12954        -1.56459
   C        3.13584         4.88554        -1.50561
   C        2.00975         4.07565        -1.32348
   C        0.91767         4.56739        -0.56987
   C        0.90257         5.83379         0.00182
   S       -0.37326         3.40936        -0.49358
   C        0.54218         2.31004        -1.48561
   C        1.76481         2.77158        -1.83662
  Br       -0.22227         0.67929        -2.01372
   H       -6.37799        -3.15440        -2.64565
   H       -1.84185        -4.01541        -0.70239
   H       -6.23263        -5.81952        -3.50972
   H       -2.84988         1.26924        -0.00318
   H       -3.05498         3.42701        -0.57033
   H       -7.98360         3.09593        -0.22211
   H       -6.60650         1.07014        -0.16457
   H       -2.68751         5.59019         0.38657
   H       -4.08559         6.04558         1.34660
   H       -2.50690         7.99837        -0.40038
   H       -2.32175         7.78336         1.33738
   H       -3.83520         8.40181         0.69748
   H       -3.72951         7.33417        -2.22228
   H       -4.57535         5.94890        -2.90032
   H       -1.76727         5.84247        -1.69568
   H       -2.15419         5.92219        -3.41017
   H       -2.61930         4.50389        -2.48056
   H       -5.26619         8.69873        -0.95697
   H       -9.44539         7.88570        -0.47196
   H       -8.98230         5.47141        -0.35132
   H       -8.76861        10.11185        -0.78539
   H       -5.75246        10.64413        -0.75769
   H       -8.14719        12.56080        -0.91696
   H       -7.25304        15.07752        -1.03384
   H       -5.02708        16.37551        -1.05912
   H       -2.60866        17.00441        -1.06839
   H       -0.03669        16.94624        -1.01457
   H        1.89919        15.35544        -0.94975
   H        3.88920        14.03466        -1.13214
   H        0.22201        11.91913        -0.29157
   H        4.93885         9.70663        -1.25367
   H        3.98697         4.53979        -2.07097
   H        0.04690         6.17406         0.56166
   H        2.46312         2.22347        -2.44255
*
