# ORCA input file
# SCF done       -150.279961505135          0.000349936571
! CAM-B3LYP def2-SVP def2/J RIJCOSX Grid4 TightSCF
%maxcore 5000
%tddft
    Mode sTDDFT
    Ethresh 5.0
    maxcore 5000
end

%pal
  nprocs 6
  end
* xyz 0 1
   C       -3.31827         0.99312         3.70301
   S       -4.20395        -0.34959         4.22297
   C       -3.42085        -1.42412         3.09698
   C       -2.47086        -0.71103         2.33639
   C       -2.42119         0.67942         2.69636
   C       -1.49878         1.56240         2.05635
   C       -1.45379         2.99525         2.43700
   O       -2.33538         3.52255         3.08081
   C       -0.24523         3.78056         1.98776
   C       -0.67512         1.03459         1.08713
   C       -0.72949        -0.32124         0.73413
   C       -1.60083        -1.18691         1.34112
   C       -3.81142        -2.77428         3.15305
   C       -3.44073        -3.82616         2.36442
   C       -3.87001        -5.13594         2.64459
   C       -3.56289        -6.32828         2.01673
   C       -4.17163        -7.38013         2.76681
   C       -4.88939        -6.76312         3.86870
   O       -5.54794        -7.20432         4.76392
   O       -4.66498        -5.39409         3.72858
   C       -3.79952        -8.56552         2.18272
   O       -3.00866        -8.31954         1.10038
   C       -2.82849        -6.93813         0.93505
   O       -2.17338        -6.49308         0.03374
   C       -4.06560        -9.90018         2.58198
   O       -4.84178       -10.11369         3.66156
   C       -4.89071       -11.42984         3.87688
   C       -4.15594       -12.10960         2.94925
   C       -3.62139       -11.12352         2.09160
   S       -2.57356       -11.42837         0.71242
   C       -3.48120       -10.68364        -0.54736
   C       -3.22118       -10.62496        -1.88841
   C       -4.34862        -9.97373        -2.49455
   C       -5.26486        -9.61700        -1.45040
   O       -6.31469        -9.03656        -1.42766
   O       -4.67132       -10.10409        -0.26352
   C       -4.16425       -10.02161        -3.86016
   O       -2.95775       -10.59707        -4.13028
   C       -2.32701       -11.01339        -2.95542
   O       -1.26297       -11.56309        -2.98494
   C       -4.98717        -9.58328        -4.91055
   S       -6.22074        -8.41585        -4.57866
   C       -6.59245        -8.22137        -6.24929
   C       -5.80517        -9.06685        -7.04950
   C       -4.91940        -9.88360        -6.28295
   C       -4.15453       -10.88766        -6.92330
   C       -3.52711       -12.02028        -6.17040
   O       -4.19979       -12.68222        -5.41554
   C       -2.09066       -12.33166        -6.48425
   C       -4.18636       -10.95242        -8.29739
   C       -4.99160       -10.08855        -9.05807
   C       -5.81698        -9.18203        -8.45376
   C       -7.59190        -7.30032        -6.69912
   C       -8.35361        -6.55736        -5.89406
   H       -3.48181         1.95746         4.14067
   H        0.67410         3.26004         2.24338
   H       -0.26170         4.75455         2.47034
   H       -0.27956         3.92741         0.90996
   H        0.02853         1.66530         0.56792
   H       -0.06377        -0.68624        -0.03313
   H       -1.60877        -2.22407         1.05486
   H       -4.50600        -3.00836         3.95176
   H       -2.79828        -3.73261         1.50566
   H       -5.47886       -11.76819         4.70712
   H       -4.01017       -13.16616         2.86827
   H       -1.99238       -13.38508        -6.73971
   H       -1.50717       -12.16650        -5.57893
   H       -1.69978       -11.70648        -7.28034
   H       -3.62089       -11.71863        -8.80654
   H       -4.98324       -10.18020       -10.13360
   H       -6.47863        -8.56526        -9.04106
   H       -7.71614        -7.23297        -7.77129
   H       -8.25567        -6.61012        -4.82257
   H       -9.09528        -5.88406        -6.28480
*
