# ORCA input file
# SCF done       -166.010652937321          0.000366004952
! CAM-B3LYP def2-SVP def2/J RIJCOSX Grid4 TightSCF
%maxcore 5000
%tddft
    Mode sTDDFT
    Ethresh 5.0
    maxcore 5000
end

%pal
  nprocs 6
  end
* xyz 0 1
   C       -4.46110        -2.17699        -3.71031
   S       -3.92122        -1.80724        -2.14157
   C       -4.08880        -3.44896        -1.61606
   C       -4.56811        -4.26051        -2.65477
   C       -4.78191        -3.51244        -3.86207
   C       -5.28307        -4.15770        -5.01305
   C       -5.58157        -5.49505        -4.95778
   C       -6.10381        -6.15535        -6.09614
   N       -6.53123        -6.67066        -7.02506
   C       -5.38630        -6.23582        -3.74813
   C       -5.73846        -7.60501        -3.69510
   N       -6.02873        -8.70917        -3.60235
   C       -4.88246        -5.62946        -2.62208
   C       -3.77588        -3.82934        -0.28719
   O       -3.71711        -5.13062         0.05198
   C       -3.43834        -5.21437         1.38197
   C       -3.31517        -3.94375         1.91025
   C       -3.51873        -3.04546         0.84455
   C       -3.48769        -1.64595         0.90928
   N       -3.45973        -0.50144         0.97551
   C       -3.30391        -6.48300         2.00105
   C       -3.26404        -7.65064         1.30946
   C       -3.14231        -8.92944         1.89488
   S       -3.28838        -9.18803         3.59970
   C       -3.07796       -10.90520         3.46169
   C       -2.83706       -11.26631         2.12994
   C       -2.88937       -10.14488         1.23725
   C       -2.59368       -10.32734        -0.12313
   C       -2.23473       -11.56671        -0.58593
   N       -1.71591       -11.64942        -1.93835
   O       -2.17819       -10.88620        -2.75106
   O       -0.79806       -12.41468        -2.11620
   C       -2.18668       -12.67720         0.29544
   N       -1.94566       -14.02789        -0.18723
   O       -2.42032       -14.31350        -1.25697
   O       -1.35495       -14.76967         0.56108
   C       -2.46956       -12.52837         1.62666
   C       -3.12022       -11.70965         4.63041
   S       -2.46940       -11.08850         6.11710
   C       -2.84929       -12.52757         6.99228
   C       -3.49437       -13.45966         6.16637
   C       -3.66126       -12.98739         4.82182
   C       -4.38548       -13.77342         3.90608
   C       -4.88446       -14.98921         4.29196
   N       -5.48688       -15.82260         3.26504
   O       -6.10120       -15.25185         2.39631
   O       -5.26025       -17.00521         3.32862
   C       -4.70961       -15.45738         5.61978
   N       -5.39280       -16.63826         6.11188
   O       -4.84399       -17.25581         6.99366
   O       -6.49102       -16.85811         5.66193
   C       -4.02276       -14.70691         6.53708
   C       -2.51976       -12.65676         8.36411
   O       -2.77477       -13.80069         9.02870
   C       -2.36383       -13.65090        10.31022
   C       -1.83474       -12.39216        10.48820
   C       -1.92741       -11.74029         9.23912
   C       -1.51988       -10.43573         8.93392
   N       -1.18834        -9.36469         8.69013
   C       -2.51510       -14.72730        11.25212
   C       -3.03003       -15.91827        10.95315
   H       -4.52587        -1.40476        -4.45093
   H       -5.43753        -3.59613        -5.92167
   H       -4.74730        -6.20047        -1.71781
   H       -3.09883        -3.68803         2.92712
   H       -3.20542        -6.47737         3.07711
   H       -3.31291        -7.61952         0.23019
   H       -2.59368        -9.49713        -0.81234
   H       -2.38169       -13.38433         2.27722
   H       -4.57019       -13.43050         2.90000
   H       -3.92818       -15.06519         7.54925
   H       -1.42990       -11.98221        11.39041
   H       -2.17102       -14.49870        12.25051
   H       -3.37143       -16.16133         9.96121
   H       -3.12125       -16.68963        11.69637
*
