# ORCA input file
# SCF done       -160.227137133220          0.000370679162
! CAM-B3LYP def2-SVP def2/J RIJCOSX Grid4 TightSCF
%maxcore 5000
%tddft
    Mode sTDDFT
    Ethresh 5.0
    maxcore 5000
end

%pal
  nprocs 6
  end
* xyz 0 1
   C       -3.53774        -2.63940         4.04848
   S       -3.39278        -3.64089         5.45371
   C       -4.99735        -4.26055         5.26191
   C       -5.59450        -3.72168         4.17397
   C       -4.75884        -2.78765         3.47270
   C       -5.49176        -2.28488         2.34203
   C       -6.72348        -2.86897         2.30627
   C       -6.89685        -3.79328         3.48207
   O       -7.89318        -4.38919         3.79934
   C       -7.74489        -2.62981         1.33968
   O       -7.65461        -1.54474         0.54995
   C       -8.72673        -1.52630        -0.27944
   C       -9.52209        -2.62658        -0.02919
   C       -8.89850        -3.34544         1.01282
   C       -9.36440        -4.57788         1.50352
   N       -9.80185        -5.59777         1.78894
   C       -8.83387        -0.44480        -1.20008
   C       -9.87477        -0.26922        -2.04021
   C      -10.04253         0.81707        -2.95681
   S      -11.66648         1.27198        -3.35965
   C      -11.13269         2.59539        -4.33598
   C       -9.76092         2.67131        -4.35439
   C       -9.13673         1.64609        -3.59579
   C       -7.65414         1.42044        -3.56514
   F       -7.34817         0.11132        -3.55009
   F       -7.02008         1.92842        -4.61896
   F       -7.07106         1.95100        -2.47117
   C       -9.01613         3.78989        -5.02971
   F       -9.82439         4.83738        -5.28071
   F       -8.04010         4.27072        -4.24767
   F       -8.46974         3.44463        -6.19396
   C      -12.10953         3.45705        -4.97117
   S      -13.15033         4.42980        -3.99276
   C      -13.94214         5.09070        -5.38545
   C      -13.40027         4.58883        -6.54996
   C      -12.37293         3.63905        -6.30697
   C      -11.66670         2.86823        -7.38826
   F      -11.11740         1.73830        -6.90173
   F      -12.50199         2.48071        -8.35553
   F      -10.67519         3.55284        -7.95991
   C      -13.77551         5.05850        -7.92686
   F      -14.26758         6.30796        -7.90315
   F      -12.72278         5.09914        -8.74775
   F      -14.69663         4.28286        -8.50767
   C      -14.99110         6.03054        -5.11872
   O      -14.88364         6.70225        -3.95211
   C      -15.97175         7.48723        -3.80922
   C      -16.81304         7.31322        -4.88230
   C      -16.19137         6.36671        -5.73268
   C      -16.78289         5.84390        -6.89515
   N      -17.33739         5.42716        -7.80616
   C      -16.11078         8.33514        -2.65303
   C      -15.21249         8.40267        -1.67450
   H       -2.71517        -2.01752         3.75659
   H       -5.37891        -4.97764         5.96127
   H       -5.11412        -1.57294         1.63002
   H      -10.43130        -2.90008        -0.52358
   H       -8.01555         0.25713        -1.15553
   H      -10.71122        -0.95224        -1.99331
   H      -17.75721         7.78783        -5.05356
   H      -17.01422         8.92683        -2.63414
   H      -14.31187         7.81278        -1.69871
   H      -15.35193         9.04906        -0.82682
*
