# ORCA input file
# SCF done       -178.453274711453          0.000607278079
! CAM-B3LYP def2-SVP def2/J RIJCOSX Grid4 TightSCF
%maxcore 5000
%tddft
    Mode sTDDFT
    Ethresh 5.0
    maxcore 5000
end

%pal
  nprocs 6
  end
* xyz 0 1
   C       -3.65852        -0.39643        -0.59162
   S       -3.19120        -2.04239        -0.61197
   C       -2.29120        -1.87406         0.87615
   C       -2.38831        -0.56804         1.34686
   C       -3.16487         0.26527         0.49116
   N       -3.31606         1.69448         0.62668
   O       -4.38119         2.15930         0.29749
   O       -2.34452         2.31044         0.98819
   N       -1.96437        -0.14662         2.64100
   O       -1.03834        -0.72993         3.16698
   O       -2.61020         0.74120         3.15574
   C       -1.61268        -2.96357         1.47490
   C       -1.72021        -4.24347         1.03484
   C       -1.05816        -5.36872         1.58221
   S       -1.15313        -6.87824         0.72145
   C       -0.08773        -7.63614         1.84541
   C        0.30965        -6.76530         2.85974
   C       -0.25493        -5.47935         2.72111
   O       -0.01797        -4.44767         3.58735
   C       -1.08188        -4.12980         4.47342
   O        1.15546        -7.25130         3.78928
   C        1.74064        -6.37035         4.72975
   C        0.34604        -8.97095         1.69392
   S        1.50212        -9.68827         2.75253
   C        1.51984       -11.14201         1.79575
   C        0.63069       -11.07543         0.72754
   C       -0.04738        -9.83733         0.68245
   O       -1.00286        -9.46230        -0.22845
   C       -2.31421        -9.89929         0.09846
   O        0.46246       -12.14686        -0.07204
   C        0.08795       -11.93152        -1.42657
   C        2.37754       -12.23026         2.12889
   S        2.73068       -12.60624         3.79295
   C        3.69351       -13.99439         3.36148
   C        3.73255       -14.13018         1.97860
   C        2.99377       -13.13475         1.29202
   N        2.88827       -13.07164        -0.14944
   O        2.51504       -14.06838        -0.71367
   O        3.16555       -12.01607        -0.66531
   N        4.56015       -15.06944         1.29044
   O        4.81488       -16.12056         1.83895
   O        4.98303       -14.72350         0.20847
   C        4.34591       -14.79159         4.33495
   C        4.23252       -14.59432         5.66878
   C        4.86825       -15.39563         6.65297
   S        5.93859       -16.70326         6.22122
   C        6.21855       -17.06495         7.86771
   C        5.53198       -16.24287         8.71674
   C        4.75606       -15.28721         8.02860
   C        3.93193       -14.25861         8.73763
   C        3.72537       -14.62968        10.21169
   C        3.10398       -13.43592        10.92981
   F        2.05143       -12.94705        10.25058
   F        2.65403       -13.72947        12.15206
   F        3.96995       -12.41877        11.06145
   C        5.06988       -15.02934        10.84590
   C        4.97191       -15.22786        12.27679
   N        4.92475       -15.42992        13.39927
   C        5.56108       -16.33999        10.20940
   H       -4.24711         0.01990        -1.38518
   H       -0.96861        -2.71695         2.30506
   H       -2.33780        -4.45016         0.16801
   H       -1.15056        -4.87206         5.27640
   H       -2.04166        -4.07959         3.95368
   H       -0.83984        -3.15488         4.89181
   H        2.16557        -5.49141         4.24277
   H        2.52740        -6.94824         5.21140
   H        1.01316        -6.05204         5.48035
   H       -2.95037        -9.56575        -0.71810
   H       -2.65627        -9.45131         1.03644
   H       -2.36316       -10.98869         0.18801
   H        0.62250       -11.07833        -1.84607
   H       -0.98803       -11.77923        -1.52660
   H        0.37873       -12.84256        -1.94806
   H        4.94102       -15.61376         3.95988
   H        3.61456       -13.78212         6.03085
   H        6.87516       -17.87049         8.13085
   H        2.96032       -14.14934         8.25090
   H        4.43881       -13.28800         8.68115
   H        3.01616       -15.45995        10.30111
   H        5.79978       -14.23020        10.66399
   H        4.91430       -17.16187        10.53469
   H        6.57166       -16.56495        10.55565
*
