# ORCA input file
# SCF done       -148.425762056180          0.000274172480
! CAM-B3LYP def2-SVP def2/J RIJCOSX Grid4 TightSCF
%maxcore 5000
%tddft
    Mode sTDDFT
    Ethresh 5.0
    maxcore 5000
end

%pal
  nprocs 6
  end
* xyz 0 1
   C        1.99545        -2.21579        -1.60300
   N        3.23886        -1.69552        -1.70541
   C        4.11052        -1.89576        -2.83326
   C        4.03046        -0.73233        -3.82159
   C        3.48673        -0.91208        -0.60177
   C        2.35437        -0.96971         0.20680
   C        1.42100        -1.78891        -0.42804
   C        4.70747        -0.21296        -0.39959
   C        4.99723         0.53731         0.68970
   C        6.23342         1.21288         0.86367
   O        7.19057         1.19995        -0.08643
   C        8.25895         1.90685         0.37998
   C        7.98847         2.38337         1.64378
   C        6.68422         1.94775         1.96379
   C        5.96655         2.18768         3.14040
   N        5.37296         2.38443         4.10293
   C        9.42951         2.06876        -0.41317
   C        9.55742         1.64441        -1.68777
   C       10.76885         1.82742        -2.42018
   N       10.91168         1.53886        -3.75737
   C       12.17345         1.82143        -4.18377
   C       12.88064         2.30138        -3.10184
   C       11.99133         2.30349        -1.99901
   S       12.88172         2.86784        -0.57567
   O       12.36314         4.11904        -0.08253
   O       13.02518         1.81792         0.40132
   C       14.41370         3.10414        -1.52901
   C       14.21138         2.75838        -2.81651
   C       15.58149         3.57297        -0.87896
   C       15.60443         3.81536         0.44879
   C       16.77365         4.27057         1.12530
   N       16.83088         4.47372         2.48446
   C       18.06449         4.89533         2.86186
   C       18.84307         4.97563         1.72359
   C       18.02503         4.58157         0.63765
   S       18.98546         4.68532        -0.85041
   O       19.18825         3.38514        -1.43356
   O       18.48275         5.71391        -1.72190
   C       20.46327         5.24683         0.05751
   C       20.18690         5.33463         1.37572
   C       21.67535         5.52617        -0.62353
   C       21.77449         5.40650        -1.96475
   C       22.93255         5.66019        -2.77903
   C       24.19062         6.04860        -2.34625
   F       24.44541         6.22939        -1.03723
   C       25.26867         6.27443        -3.22904
   F       26.44153         6.64710        -2.69082
   C       25.16685         6.13170        -4.58510
   C       23.91534         5.73975        -5.08368
   C       22.81095         5.50553        -4.18978
   N       21.71299         5.14300        -4.84632
   S       22.03391         5.10110        -6.41608
   N       23.57875         5.53885        -6.35819
   H        1.60023        -2.86100        -2.36383
   H        3.80928        -2.82166        -3.33076
   H        5.13803        -2.02209        -2.48010
   H        3.01245        -0.62075        -4.18706
   H        4.68690        -0.91589        -4.66813
   H        4.32511         0.19796        -3.34225
   H        2.22894        -0.47202         1.14711
   H        0.44234        -2.04300        -0.07280
   H        5.46453        -0.28961        -1.16815
   H        4.29201         0.64689         1.49893
   H        8.64085         2.97134         2.25590
   H       10.25289         2.57920         0.06516
   H        8.73381         1.15516        -2.18936
   H       10.17347         1.17852        -4.34080
   H       12.47187         1.66226        -5.20048
   H       14.97605         2.80846        -3.57550
   H       16.47428         3.72634        -1.47354
   H       14.71391         3.65374         1.03942
   H       16.05119         4.32068         3.10515
   H       18.30095         5.10487         3.88594
   H       20.90326         5.64788         2.11969
   H       22.50950         5.84202        -0.01187
   H       20.90331         5.09286        -2.52316
   H       26.00393         6.31068        -5.23733
*
