# ORCA input file
# SCF done       -147.153916158889          0.000993383676
! CAM-B3LYP def2-SVP def2/J RIJCOSX Grid4 TightSCF
%maxcore 5000
%tddft
    Mode sTDDFT
    Ethresh 5.0
    maxcore 5000
end

%pal
  nprocs 6
  end
* xyz 0 1
   C        2.01914        -2.73397        -0.41243
   N        2.67494        -1.64493        -0.87339
   C        2.72646        -1.30407        -2.27215
   C        4.03014        -1.77157        -2.91836
   C        3.29036        -1.01905         0.18677
   C        2.98000        -1.75708         1.33197
   C        2.18308        -2.83243         0.95037
   C        4.08968         0.15386         0.20907
   C        4.50587         0.97801        -0.78548
   C        5.31211         2.12054        -0.56712
   S        5.87242         2.57770         1.00601
   C        6.72408         3.97762         0.41732
   C        6.58318         4.08596        -0.96618
   C        5.77937         3.03291        -1.52344
   C        5.54230         2.99531        -2.90811
   C        6.08563         3.95964        -3.72137
   C        5.84551         3.91356        -5.11209
   N        5.62906         3.83785        -6.23555
   C        6.90438         4.99624        -3.16815
   C        7.46121         5.95923        -4.04165
   N        7.89860         6.72621        -4.77199
   C        7.15122         5.05297        -1.81997
   C        7.40319         4.80544         1.35879
   N        7.63277         4.35460         2.64141
   C        8.25362         5.30096         3.39088
   C        8.43536         6.40585         2.58939
   C        7.90773         6.09210         1.30843
   S        8.08466         7.55498         0.30702
   O        9.05875         7.36511        -0.73685
   O        6.79782         8.06368        -0.09083
   C        8.83826         8.50879         1.65345
   C        8.96671         7.72703         2.74612
   C        9.26116         9.83818         1.42664
   C        8.93084        10.51336         0.29802
   C        9.33163        11.83442        -0.02505
   S        8.32273        12.77326        -1.07794
   C        9.28499        14.20430        -0.91278
   C       10.39198        13.94593        -0.09211
   C       10.42958        12.59435         0.39314
   C       11.53922        12.16311         1.14355
   C       12.52058        13.05917         1.49099
   C       13.63650        12.62435         2.24014
   N       14.52899        12.24953         2.85403
   C       12.41596        14.43584         1.11319
   C       13.40140        15.35120         1.54372
   N       14.19248        16.10679         1.88643
   C       11.37402        14.86202         0.32562
   C        9.01506        15.42757        -1.59672
   N        7.77384        15.95947        -1.83827
   C        6.51868        15.39978        -1.40328
   C        5.82325        14.62681        -2.52228
   C        7.91402        17.13686        -2.51993
   C        9.27293        17.34728        -2.73175
   C        9.95992        16.29047        -2.15359
   C        6.80712        17.96970        -2.90891
   C        6.92453        19.12944        -3.55338
   H        1.46889        -3.36872        -1.08008
   H        2.59378        -0.22570        -2.38872
   H        1.88229        -1.79572        -2.76370
   H        4.89028        -1.34149        -2.41116
   H        4.05494        -1.47839        -3.96450
   H        4.10707        -2.85459        -2.85868
   H        3.30692        -1.52020         2.32542
   H        1.77169        -3.59089         1.58575
   H        4.41253         0.40961         1.21283
   H        4.24207         0.80491        -1.81514
   H        4.93843         2.21238        -3.34186
   H        7.78641         5.82636        -1.42690
   H        7.37193         3.43657         2.96574
   H        8.51245         5.12875         4.41602
   H        9.41168         8.05222         3.67333
   H        9.83544        10.31017         2.21321
   H        8.25442        10.03443        -0.39785
   H       11.63935        11.12558         1.42011
   H       11.30427        15.89941         0.03885
   H        5.87545        16.21115        -1.05058
   H        6.70833        14.73674        -0.55619
   H        5.62451        15.27779        -3.37009
   H        4.88214        14.22171        -2.16146
   H        6.44733        13.80404        -2.86109
   H        9.70920        18.17453        -3.25342
   H       11.01838        16.12556        -2.18354
   H        5.81747        17.61706        -2.65335
   H        7.87957        19.53307        -3.83878
   H        6.05938        19.71134        -3.81770
*
