# ORCA input file
# SCF done       -183.666276241791          0.000246552538
! CAM-B3LYP def2-SVP def2/J RIJCOSX Grid4 TightSCF
%maxcore 5000
%tddft
    Mode sTDDFT
    Ethresh 5.0
    maxcore 5000
end

%pal
  nprocs 6
  end
* xyz 0 1
   C      -10.15905        -7.03131        -3.94796
   S       -8.73683        -7.08664        -4.89043
   C       -7.73085        -7.40594        -3.51577
   C       -8.50170        -7.46488        -2.35516
   C       -9.89765        -7.24736        -2.61731
   C      -10.82628        -7.27671        -1.53316
   C      -12.19538        -7.06818        -1.79155
   N      -13.30978        -6.90293        -2.01197
   C      -10.36541        -7.51190        -0.26133
   C       -8.99605        -7.72741        -0.01549
   C       -8.08103        -7.70542        -1.02883
   C       -6.31634        -7.58085        -3.64701
   C       -5.65917        -7.52309        -4.80827
   C       -4.18601        -7.70733        -4.99480
   C       -3.46904        -8.24884        -3.80016
   C       -2.49003        -7.67964        -3.09589
   O       -2.03235        -8.40411        -2.01688
   C       -0.69059        -8.30941        -1.58217
   C       -0.51683        -7.41391        -0.34803
   C       -0.67777        -5.93050        -0.68710
   O       -2.05809        -5.68132        -0.96673
   C       -2.34459        -5.29378        -2.28494
   C       -1.92218        -6.31301        -3.36064
   C       -0.21024        -4.89836         0.32892
   C        0.44928        -3.77573        -0.20075
   O        0.74240        -3.80502        -1.53647
   C        1.42378        -2.71233        -2.12138
   C        1.61270        -3.03149        -3.59676
   C        0.75872        -2.70431         0.62021
   C        0.39433        -2.69264         1.95582
   C        0.72871        -1.49467         2.80083
   C        2.23473        -1.39046         3.04564
   C       -0.26925        -3.79554         2.49747
   O       -0.73922        -3.65524         3.77941
   C       -0.37335        -4.58698         4.78733
   C        1.11926        -4.87372         4.83309
   C       -0.54147        -4.91055         1.68604
   C       -1.23799        -6.07454         2.24931
   S       -0.37780        -7.44649         2.88614
   C       -1.87714        -8.29230         3.19431
   C       -2.95400        -7.52441         2.82925
   C       -2.58804        -6.26164         2.30586
   C       -3.57963        -5.24342         1.84039
   C       -4.96712        -5.87190         1.67945
   C       -5.99051        -4.76858         1.45059
   F       -5.60660        -3.92568         0.47904
   F       -7.19213        -5.23378         1.08020
   F       -6.18938        -4.02019         2.54687
   C       -5.29686        -6.70469         2.93191
   C       -6.66650        -7.15957         2.97697
   N       -7.72769        -7.57880         3.03654
   C       -4.38424        -7.94176         2.95896
   C       -1.88182        -9.67917         3.57199
   S       -2.78443       -10.79639         2.60065
   C       -2.22449       -12.17483         3.47647
   C       -1.32833       -11.78795         4.47210
   C       -1.16351       -10.36159         4.54403
   C       -0.37102        -9.82170         5.59931
   C       -0.35897        -8.44381         5.88973
   N       -0.37031        -7.34661         6.22705
   C        0.32099       -10.66977         6.43321
   C        0.25727       -12.06303         6.26153
   C       -0.56172       -12.61766         5.32050
   C       -2.73886       -13.46515         3.10379
   C       -2.84355       -14.53465         3.89038
   H      -11.10659        -6.84435        -4.41241
   H      -11.06020        -7.53259         0.56486
   H       -8.67965        -7.90162         1.00074
   H       -7.03415        -7.87447        -0.82624
   H       -5.77295        -7.77455        -2.73252
   H       -6.21103        -7.32038        -5.71813
   H       -3.76492        -6.75231        -5.32075
   H       -4.04501        -8.40941        -5.82624
   H       -3.78538        -9.23493        -3.48889
   H       -0.02300        -7.99542        -2.39232
   H       -0.41753        -9.33350        -1.30042
   H        0.46941        -7.59051         0.08177
   H       -1.28652        -7.70885         0.36136
   H       -0.08163        -5.73354        -1.58320
   H       -1.86939        -4.32699        -2.51061
   H       -3.43063        -5.16776        -2.30741
   H       -0.83220        -6.35577        -3.41590
   H       -2.27677        -5.94445        -4.32105
   H        2.39924        -2.57126        -1.63650
   H        0.83352        -1.79307        -2.00667
   H        2.13438        -2.21471        -4.08672
   H        0.64659        -3.17322        -4.07417
   H        2.19381        -3.94296        -3.70934
   H        1.26476        -1.83819         0.22491
   H        0.20664        -1.57492         3.75327
   H        0.38347        -0.58959         2.29598
   H        2.60287        -2.28707         3.53859
   H        2.45394        -0.53295         3.67739
   H        2.77369        -1.27452         2.10811
   H       -0.93228        -5.52168         4.68156
   H       -0.69459        -4.10759         5.71524
   H        1.45574        -5.29364         3.88621
   H        1.31136        -5.59337         5.62260
   H        1.67735        -3.96204         5.03215
   H       -3.24110        -4.83259         0.88659
   H       -3.62562        -4.42218         2.56401
   H       -4.98586        -6.51281         0.79114
   H       -5.11669        -6.08915         3.82277
   H       -4.65548        -8.60172         2.12779
   H       -4.53680        -8.50099         3.88554
   H        0.91821       -10.25544         7.23191
   H        0.85122       -12.69440         6.90438
   H       -0.61250       -13.68732         5.20083
   H       -3.11372       -13.51933         2.08885
   H       -2.55855       -14.52512         4.92721
   H       -3.25253       -15.45604         3.51475
*
