# ORCA input file
# SCF done       -196.016267501387          0.000713539084
! CAM-B3LYP def2-SVP def2/J RIJCOSX Grid4 TightSCF
%maxcore 5000
%tddft
    Mode sTDDFT
    Ethresh 5.0
    maxcore 5000
end

%pal
  nprocs 6
  end
* xyz 0 1
   C       -5.58519        -3.53264       -15.34977
   O       -4.65353        -3.19958       -14.42619
   C       -4.31161        -4.33545       -13.82675
   C       -5.02008        -5.42070       -14.35633
   C       -5.85255        -4.87662       -15.35605
   C       -4.62817        -6.65426       -13.68577
   S       -5.17405        -8.16280       -13.95039
   C       -3.62408        -6.21602       -12.71438
   C       -3.44363        -4.82381       -12.80770
   O       -2.53884        -4.39400       -11.94759
   C       -2.09536        -5.49787       -11.26310
   C       -2.75215        -6.64711       -11.71603
   C       -1.08949        -5.30143       -10.28579
   C       -0.56160        -6.31989        -9.55987
   C        0.47257        -6.28787        -8.57928
   C        0.86571        -7.51861        -7.99402
   C        0.40199        -8.88943        -8.31885
   O       -0.45400        -9.26916        -9.06010
   O        1.16048        -9.76503        -7.58511
   C        2.07368        -9.09393        -6.81141
   O        2.92182        -9.66528        -6.19943
   C        1.82912        -7.64596        -7.00316
   C        2.50870        -6.54828        -6.43827
   C        2.22290        -5.34311        -7.10521
   C        1.24537        -5.20006        -8.09962
   C        1.23688        -3.76166        -8.46357
   O        0.57009        -3.14246        -9.23711
   O        2.19982        -3.13341        -7.71745
   C        2.85732        -4.02196        -6.91255
   O        3.79572        -3.69874        -6.25017
   C        3.35470        -6.70417        -5.29127
   S        4.81266        -5.80555        -5.03559
   C        5.17406        -6.72665        -3.62609
   C        4.17933        -7.62678        -3.30320
   C        3.11579        -7.59345        -4.24493
   O        1.92764        -8.22285        -4.16788
   C        1.74526        -9.16398        -3.11867
   C        2.89110       -10.16928        -3.05317
   C        3.99429        -9.69887        -2.10623
   O        4.21966        -8.29275        -2.11693
   C        6.38777        -6.44568        -2.88715
   C        6.68618        -5.17475        -2.38625
   C        5.79087        -3.99336        -2.29949
   O        4.65739        -3.86465        -2.63501
   O        6.49755        -3.00956        -1.65460
   C        7.74739        -3.44433        -1.28996
   O        8.50571        -2.74833        -0.68938
   C        7.88184        -4.85112        -1.74887
   C        8.91576        -5.78954        -1.54287
   C        8.60537        -7.08002        -2.02770
   C        7.39845        -7.38204        -2.65720
   C        7.45536        -8.79952        -3.08501
   O        6.64240        -9.46340        -3.64931
   O        8.68193        -9.27958        -2.71953
   C        9.44896        -8.29928        -2.12086
   O       10.58622        -8.49582        -1.83127
   C       10.15798        -5.48482        -0.90246
   O       10.82021        -6.49827        -0.25626
   C       11.95615        -5.99009         0.17285
   C       12.07799        -4.63061        -0.17959
   C       10.90698        -4.30891        -0.86451
   C       13.35478        -4.10499         0.29314
   S       13.95665        -2.60564         0.11604
   C       13.97336        -5.25134         0.95708
   C       13.12686        -6.36823         0.88301
   O       13.67364        -7.42421         1.47365
   C       14.88875        -7.02045         1.94182
   C       15.11430        -5.68120         1.64472
   C       15.69443        -7.99533         2.62383
   C       16.90510        -7.76524         3.12737
   H       -5.98384        -2.73233       -15.94086
   H       -6.54565        -5.39010       -15.98925
   H       -2.60096        -7.64518       -11.35944
   H       -0.76110        -4.28113       -10.16643
   H       -0.95529        -7.30899        -9.73940
   H        1.63258        -8.63498        -2.16338
   H        0.80192        -9.65425        -3.36705
   H        3.28824       -10.29328        -4.06269
   H        2.52750       -11.13674        -2.70937
   H        3.72962        -9.90768        -1.06569
   H        4.92964       -10.21563        -2.35082
   H       10.63283        -3.36622        -1.28847
   H       15.98457        -5.11131         1.89432
   H       15.23739        -8.97207         2.70344
   H       17.37944        -6.80219         3.05747
   H       17.45756        -8.54133         3.62553
*
