# ORCA input file
# SCF done       -147.868304409126          0.000417253018
! CAM-B3LYP def2-SVP def2/J RIJCOSX Grid4 TightSCF
%maxcore 5000
%tddft
    Mode sTDDFT
    Ethresh 5.0
    maxcore 5000
end

%pal
  nprocs 6
  end
* xyz 0 2
   C       10.16163        12.86166        -3.56919
   S       11.07284        13.80095        -4.65732
   C       10.52704        12.79931        -5.95965
   N       10.97676        13.09267        -7.26416
   O       10.58445        12.38206        -8.16525
   O       11.72629        14.04198        -7.38236
   C        9.68726        11.79759        -5.56022
   C        9.46563        11.82379        -4.16135
   C        8.63921        10.91832        -3.41058
   C        7.94914         9.88279        -3.92968
   C        7.14292         9.00825        -3.14777
   O        7.00392         9.16836        -1.81802
   C        6.18510         8.18675        -1.35744
   C        5.78741         7.37700        -2.40532
   C        6.39849         7.90035        -3.56130
   C        6.29576         7.42555        -4.87674
   N        6.21571         7.04508        -5.95517
   C        5.84519         8.10520         0.01881
   C        6.27866         8.98773         0.95253
   C        5.94201         8.94073         2.32642
   O        6.40942         9.90488         3.14524
   C        5.94848         9.67051         4.40159
   C        5.16815         8.52132         4.39817
   C        5.15922         8.04875         3.07600
   C        4.49363         6.90398         2.61676
   N        3.94148         5.96126         2.26692
   C        6.30077        10.57175         5.42788
   C        5.87479        10.47603         6.72306
   C        6.21132        11.38679         7.72908
   S        7.24886        12.76050         7.42501
   C        7.12129        13.34096         9.08201
   C        6.27852        12.47657         9.84367
   C        5.78677        11.37905         9.07403
   C        4.96935        10.41933         9.69048
   C        4.62597        10.55720        11.01341
   N        3.92411         9.44733        11.63627
   O        3.01436         8.95865        11.01157
   O        4.36934         9.05062        12.68526
   C        5.06027        11.67506        11.75378
   N        4.55815        11.94498        13.07238
   O        3.47500        11.48059        13.35724
   O        5.22517        12.66975        13.78141
   C        5.89318        12.61568        11.17071
   C        7.79799        14.47467         9.44804
   S        7.79515        15.17950        11.04116
   C        8.85160        16.52794        10.66677
   C        9.30669        16.60336         9.38266
   S        8.76947        15.34276         8.28773
   C       10.20355        17.64225         8.83475
   O       10.62178        18.56104         9.50090
   C       10.55717        17.46661         7.38362
   C        9.16100        17.45282        11.72853
   C        8.69428        17.33879        12.96983
   H       10.16961        13.10588        -2.52448
   H        9.26113        11.09051        -6.24742
   H        8.58453        11.10236        -2.34641
   H        7.97368         9.65561        -4.98512
   H        5.14230         6.52456        -2.34686
   H        5.19859         7.28476         0.29020
   H        6.92149         9.80662         0.66047
   H        4.66750         8.07467         5.23223
   H        6.94289        11.39213         5.13712
   H        5.22728         9.65886         7.00413
   H        4.61988         9.55566         9.14732
   H        6.19874        13.45632        11.77201
   H        9.65540        17.48031         6.77365
   H       11.05519        16.51031         7.23212
   H       11.21700        18.27297         7.07480
   H        9.81288        18.26727        11.44724
   H        8.04361        16.53289        13.27198
   H        8.95533        18.05562        13.72767
*
