# ORCA input file
# SCF done       -219.549993910848          0.000263728150
! CAM-B3LYP def2-SVP def2/J RIJCOSX Grid4 TightSCF
%maxcore 5000
%tddft
    Mode sTDDFT
    Ethresh 5.0
    maxcore 5000
end

%pal
  nprocs 6
  end
* xyz 0 1
   C        1.47378        -1.08821         1.93525
   N        1.40769        -0.44528         3.13258
   C        1.87083        -0.96335         4.39518
   C        3.39498        -0.97958         4.47363
   C        0.86487         0.84934         2.99088
   O        0.70729         1.61375         3.92847
   C        0.58513         0.96075         1.58271
   C        0.98011        -0.26536         0.96181
   C        0.69316        -0.15974        -0.45732
   O        0.85935        -0.92615        -1.37919
   N        0.14054         1.12686        -0.59899
   C       -0.31913         1.60733        -1.88075
   C       -1.83355         1.48952        -2.02718
   C        0.06391         1.79845         0.59998
   C       -0.46655         3.10387         0.73122
   C       -0.51775         3.74590         1.93203
   C       -1.07912         5.03348         2.07597
   N       -1.11822         5.72068         3.26554
   C       -0.51954         5.30510         4.51126
   C        0.99142         5.52110         4.51107
   C       -1.76240         6.96730         3.13792
   O       -1.91293         7.74459         4.05708
   C       -2.15050         7.01839         1.74391
   C       -1.71647         5.83170         1.11933
   C       -2.11932         5.89941        -0.26669
   O       -1.96538         5.12457        -1.19405
   N       -2.77399         7.13600        -0.39252
   C       -3.36463         7.49867        -1.65893
   C       -4.87789         7.29673        -1.66093
   C       -2.80884         7.82115         0.80621
   C       -3.35507         9.07924         1.13842
   C       -3.99413         9.98101         0.34188
   C       -4.54581        11.22502         0.75503
   C       -4.59436        11.70364         2.09292
   C       -5.00277        13.04738         2.38502
   N       -4.84820        13.53460         3.63626
   C       -4.39477        12.74104         4.56801
   C       -4.13929        11.38115         4.31101
   N       -4.23434        10.89495         3.10489
   C       -5.47850        13.89786         1.36571
   C       -5.57079        13.37357         0.05266
   C       -5.06419        12.07833        -0.25652
   N       -5.05043        11.65815        -1.53934
   C       -5.52191        12.45431        -2.45746
   C       -6.14152        13.67662        -2.12579
   N       -6.17986        14.10814        -0.89826
   C       -5.73381        15.30292         1.51002
   N       -6.42138        15.94224         2.50488
   C       -7.20237        15.32912         3.55164
   C       -8.38977        14.55661         2.98482
   C       -6.49645        17.32811         2.27159
   O       -7.08836        18.09941         3.00588
   C       -5.75527        17.53425         1.04974
   C       -5.31598        16.26743         0.59733
   C       -4.51777        16.46522        -0.59594
   O       -3.89769        15.70082        -1.30649
   N       -4.56387        17.85544        -0.80881
   C       -3.93192        18.45968        -1.95711
   C       -4.93814        18.77416        -3.06056
   C       -5.29161        18.50638         0.15907
   C       -5.48987        19.90471         0.18532
   C       -6.21214        20.51268         1.16859
   C       -6.44246        21.90637         1.18943
   N       -7.14215        22.54516         2.18780
   C       -7.65944        21.93699         3.39080
   C       -6.55843        21.68689         4.41757
   C       -7.25387        23.92459         1.95753
   O       -7.82723        24.68773         2.70963
   C       -6.56817        24.13514         0.69905
   C       -6.07620        22.87740         0.25753
   C       -5.40383        23.08224        -1.00065
   O       -4.82963        22.31962        -1.75869
   N       -5.53843        24.46013        -1.24767
   C       -4.93930        25.06817        -2.41005
   C       -3.63134        25.77929        -2.07038
   C       -6.22666        25.09713        -0.24136
   C       -6.51972        26.50077        -0.25045
   C       -7.16962        27.11204         0.74289
   H        1.85865        -2.08852         1.86455
   H        1.47191        -1.97233         4.53891
   H        1.46316        -0.30381         5.16617
   H        3.81346        -1.61650         3.69746
   H        3.71049        -1.35705         5.44221
   H        3.78726         0.02645         4.34653
   H        0.17346         0.98062        -2.62964
   H       -0.00478         2.64472        -2.01857
   H       -2.14553         0.45858        -1.87692
   H       -2.12604         1.80232        -3.02528
   H       -2.34287         2.12332        -1.30594
   H       -0.84462         3.59675        -0.15272
   H       -0.13056         3.25538         2.81360
   H       -0.75143         4.25416         4.70040
   H       -0.98150         5.92082         5.28798
   H        1.46598         4.91685         3.74180
   H        1.40052         5.23578         5.47582
   H        1.22079         6.56842         4.32816
   H       -2.90972         6.83094        -2.39748
   H       -3.09843         8.52742        -1.91130
   H       -5.11070         6.24699        -1.49819
   H       -5.28723         7.59944        -2.62066
   H       -5.35287         7.88205        -0.87752
   H       -3.23223         9.32476         2.18525
   H       -4.11586         9.81006        -0.71653
   H       -4.26373        13.17309         5.55092
   H       -3.86687        10.68582         5.09226
   H       -5.47199        12.10207        -3.47879
   H       -6.64898        14.27399        -2.87048
   H       -7.55311        16.15086         4.18191
   H       -6.55769        14.66902         4.13613
   H       -9.02638        15.21586         2.39885
   H       -8.97663        14.13605         3.79685
   H       -8.04900        13.74552         2.34455
   H       -3.20369        17.72751        -2.31764
   H       -3.40646        19.36842        -1.65356
   H       -5.47659        17.87255        -3.34329
   H       -4.41449        19.15829        -3.93120
   H       -5.65203        19.52409        -2.73008
   H       -5.05719        20.50156        -0.60449
   H       -6.63750        19.91353         1.96077
   H       -8.16452        21.00052         3.14253
   H       -8.38979        22.64308         3.79553
   H       -5.82211        20.98736         4.02968
   H       -6.99175        21.26604         5.32010
   H       -6.06058        22.62054         4.66942
   H       -5.64992        25.75918        -2.87248
   H       -4.74034        24.24976        -3.10807
   H       -3.79538        26.57244        -1.34428
   H       -3.20196        26.21069        -2.97046
   H       -2.92179        25.06974        -1.65184
   H       -6.19290        27.06250        -1.11479
   H       -7.50605        26.57254         1.61243
   H       -7.37987        28.16694         0.70430
*
