# ORCA input file
# SCF done       -151.542815279943          0.000330120578
! CAM-B3LYP def2-SVP def2/J RIJCOSX Grid4 TightSCF
%maxcore 5000
%tddft
    Mode sTDDFT
    Ethresh 5.0
    maxcore 5000
end

%pal
  nprocs 6
  end
* xyz 0 1
   C        0.46450         2.06953        -4.82000
   S        1.00125         3.04862        -6.12056
   C        2.53146         2.23407        -6.14736
   C        3.51769         2.64241        -7.11595
   O        4.62231         2.16817        -7.25513
   C        2.60056         1.23622        -5.16970
   C        1.39392         1.16590        -4.42159
   C        3.75995         0.42204        -4.97971
   C        3.86642        -0.57894        -4.07189
   C        5.03046        -1.36967        -3.88878
   C        5.16138        -2.41259        -2.99582
   C        6.46135        -2.97376        -3.11347
   C        7.16073        -2.17260        -4.13802
   C        6.30110        -1.22491        -4.59192
   C        8.50462        -2.27792        -4.51983
   N        9.61022        -2.28915        -4.83034
   C        6.97937        -4.05358        -2.43061
   C        8.23072        -4.68797        -2.63929
   C        8.39297        -5.70210        -1.71072
   C        7.19850        -5.73423        -0.88274
   C        6.33967        -4.77225        -1.31728
   C        5.08082        -4.52293        -0.76232
   N        4.05192        -4.34922        -0.28059
   C        9.54415        -6.53111        -1.66139
   N        9.99129        -7.28451        -0.60166
   C        9.40901        -7.41705         0.71256
   C        8.47277        -8.62093         0.79320
   C       11.19746        -7.94335        -0.89648
   O       11.78422        -8.64986        -0.09816
   C       11.49335        -7.56651        -2.25816
   C       10.46827        -6.69813        -2.69728
   C       10.73305        -6.35690        -4.08014
   O       10.13178        -5.69119        -4.89289
   N       11.94569        -7.01879        -4.37016
   C       12.53719        -6.93202        -5.68287
   C       12.24240        -8.17240        -6.52295
   C       12.40681        -7.74623        -3.30240
   C       13.60445        -8.49913        -3.31805
   C       14.01940        -9.22306        -2.24410
   C       15.21061        -9.98766        -2.19344
   S       15.57706       -10.88187        -0.73886
   C       17.05312       -11.48938        -1.41001
   C       17.23429       -11.00300        -2.70940
   C       16.19919       -10.16433        -3.14233
   C       18.35379       -11.33537        -3.49123
   N       19.26796       -11.60805        -4.12829
   C       17.93443       -12.35766        -0.71841
   C       17.71407       -12.81779         0.53542
   C       18.58046       -13.69147         1.24970
   S       18.13715       -14.21181         2.84563
   C       19.58160       -15.15857         2.98967
   C       19.79298       -15.89769         4.20944
   O       20.74337       -16.59894         4.46980
   C       20.37477       -15.06715         1.84240
   C       19.79054       -14.23530         0.87184
   C       21.63856       -15.76329         1.70681
   C       22.45991       -15.65321         0.66698
   H       -0.51894         2.22140        -4.41970
   H        3.16828         3.47114        -7.76199
   H        1.22744         0.47367        -3.61695
   H        4.59214         0.64903        -5.62888
   H        3.03343        -0.82475        -3.42640
   H        4.39764        -2.77121        -2.33343
   H        6.51883        -0.48062        -5.33448
   H        8.93130        -4.42256        -3.40545
   H        6.98937        -6.42733        -0.09117
   H        8.89932        -6.48810         0.97534
   H       10.24188        -7.56952         1.40605
   H        7.69165        -8.56563         0.03773
   H        8.01142        -8.66677         1.77598
   H        9.03961        -9.53445         0.63191
   H       13.61461        -6.76937        -5.58940
   H       12.08862        -6.05435        -6.15672
   H       12.63646        -9.06979        -6.05028
   H       12.69325        -8.06644        -7.50568
   H       11.16849        -8.28927        -6.64482
   H       14.19677        -8.48067        -4.22084
   H       13.40927        -9.23152        -1.35014
   H       16.18665        -9.70725        -4.11532
   H       18.82272       -12.64800        -1.26312
   H       16.81342       -12.51289         1.05320
   H       18.96602       -15.76636         4.93557
   H       20.23856       -14.03768        -0.08409
   H       21.89731       -16.40337         2.53742
   H       22.25330       -15.02167        -0.18065
   H       23.38583       -16.20034         0.63400
*
