# ORCA input file
# SCF done       -214.714441706747          0.000777651031
! CAM-B3LYP def2-SVP def2/J RIJCOSX Grid4 TightSCF
%maxcore 5000
%tddft
    Mode sTDDFT
    Ethresh 5.0
    maxcore 5000
end

%pal
  nprocs 6
  end
* xyz 0 1
   C       -1.65220        -0.83385        -7.78877
   O       -1.24242        -1.38095        -6.79526
   C       -1.06661         0.34617        -8.45713
   C       -1.90539         0.77301        -9.50227
   C       -1.54866         1.88068       -10.25626
   C       -0.36098         2.53651        -9.95628
   C        0.46691         2.10206        -8.91663
   C        0.11089         0.99828        -8.15343
  Br        2.07629         3.01213        -8.53552
  Br        0.12540         4.04474       -10.98471
   C       -3.06122        -0.11394        -9.58224
   C       -4.05271        -0.05779       -10.52074
   C       -4.12547         0.92152       -11.53665
   N       -4.23786         1.69481       -12.37618
   C       -5.12678        -0.97067       -10.61878
   N       -6.01685        -1.67789       -10.77287
   C       -2.92125        -1.11004        -8.52884
   C       -3.83503        -2.03106        -8.14497
   C       -3.59635        -3.07432        -7.17815
   C       -2.44787        -3.84918        -7.13621
   F       -1.51558        -3.70063        -8.08026
   C       -2.24785        -4.87266        -6.19049
   F       -1.14581        -5.61341        -6.31118
   C       -3.17831        -5.17330        -5.20806
   C       -4.39313        -4.44611        -5.26312
   C       -4.60250        -3.41545        -6.24041
   N       -5.80120        -2.84995        -6.11642
   S       -6.58472        -3.55216        -4.90352
   N       -5.44740        -4.59615        -4.46501
   C       -2.96144        -6.16906        -4.19175
   S       -4.27848        -7.13875        -3.59315
   C       -1.80230        -6.50457        -3.53713
   C       -0.41852        -5.99240        -3.45206
   O        0.10323        -5.05453        -3.99227
   N        0.19378        -6.80854        -2.50524
   C        1.59298        -6.68518        -2.15394
   C        2.45705        -7.58338        -3.03166
   C       -0.64982        -7.74212        -1.92707
   O       -0.32653        -8.50833        -1.05197
   C       -1.95619        -7.53711        -2.58378
   C       -3.24609        -8.01534        -2.48759
   C       -3.82187        -9.01850        -1.65228
   C       -3.09398        -9.79561        -0.82917
   C       -3.62015       -10.77640         0.08606
   C       -2.95457       -12.00407         0.29857
   C       -1.84885       -12.45132        -0.57610
   O       -1.38838       -11.89127        -1.52399
   S       -1.30552       -14.07636        -0.04678
   C       -2.59156       -14.20755         1.19825
   O       -2.82120       -15.22815         1.77404
   C       -3.31900       -12.92069         1.27937
   C       -4.38581       -12.67364         2.17268
   C       -5.11840       -11.51429         1.87341
   C       -4.76089       -10.60084         0.88511
   C       -5.72414        -9.47336         0.97784
   O       -5.79779        -8.45589         0.36251
   O       -6.61498        -9.77977         1.97945
   C       -6.31616       -10.98674         2.55970
   O       -6.96202       -11.45338         3.44811
   C       -4.72630       -13.47262         3.31685
   C       -3.79755       -14.03352         4.12242
   C       -3.97860       -14.77272         5.32350
   N       -5.12008       -15.29341         5.88738
   C       -6.45408       -15.34046         5.33650
   C       -6.53384       -16.25775         4.11938
   C       -4.84292       -15.95712         7.10157
   O       -5.69591       -16.50451         7.77034
   C       -3.41720       -15.80317         7.28749
   C       -2.92389       -15.07773         6.17454
   C       -1.49991       -14.89629         6.34581
   O       -0.66132       -14.33266         5.67727
   N       -1.22177       -15.54222         7.57163
   C        0.12997       -15.63669         8.06744
   C        0.74743       -17.00122         7.77099
   C       -2.35025       -16.08232         8.13440
   C       -2.35512       -16.77776         9.38901
   C       -3.46292       -17.30472         9.91639
   H       -2.16285         2.24858       -11.06213
   H        0.73803         0.65170        -7.34664
   H       -4.84592        -1.99687        -8.53007
   H        1.69428        -6.96590        -1.10294
   H        1.87043        -5.63719        -2.28924
   H        2.16815        -8.62402        -2.90363
   H        3.50147        -7.47324        -2.75441
   H        2.34119        -7.30908        -4.07766
   H       -4.89234        -9.13581        -1.73575
   H       -2.01410        -9.70782        -0.84017
   H       -5.77428       -13.48341         3.56973
   H       -2.74895       -13.87560         3.90299
   H       -6.79876       -14.33036         5.10130
   H       -7.08471       -15.73835         6.13766
   H       -5.84858       -15.93773         3.33813
   H       -7.54570       -16.25393         3.72388
   H       -6.27673       -17.27486         4.40522
   H        0.14513       -15.42515         9.14014
   H        0.69577       -14.85828         7.54759
   H        0.17830       -17.79883         8.24354
   H        1.76830       -17.03145         8.14143
   H        0.76179       -17.17570         6.69798
   H       -1.41029       -16.85884         9.90830
   H       -4.41464       -17.23551         9.41599
   H       -3.43916       -17.81704        10.86271
*
