# ORCA input file
# SCF done       -189.947287085124          0.000820582599
! CAM-B3LYP def2-SVP def2/J RIJCOSX Grid4 TightSCF
%maxcore 5000
%tddft
    Mode sTDDFT
    Ethresh 5.0
    maxcore 5000
end

%pal
  nprocs 6
  end
* xyz 0 1
   C        1.28805        -1.46914         2.41939
   O        0.71048        -1.66578         1.38172
   C        2.11933        -0.28822         2.75084
   C        2.56645        -0.36796         4.08097
   C        3.34509         0.65254         4.60499
   C        3.66676         1.73052         3.78923
   C        3.22107         1.79825         2.46611
   C        2.43561         0.78165         1.93909
  Br        3.67703         3.27486         1.38105
  Br        4.72309         3.12492         4.50373
   C        2.07298        -1.60628         4.67485
   C        2.39829        -2.08104         5.91578
   C        3.23516        -1.40001         6.82770
   N        3.90310        -0.89070         7.60894
   C        1.97077        -3.31596         6.45239
   N        1.67346        -4.30548         6.95207
   C        1.24696        -2.27185         3.67894
   C        0.43579        -3.33767         3.90225
   C       -0.28487        -4.06105         2.91504
   S       -1.73646        -4.97429         3.35220
   C       -1.77867        -5.45427         1.66599
   N       -0.77384        -4.96438         0.98444
   N        0.02737        -4.21088         1.66118
   C       -2.81490        -6.27183         1.13743
   C       -2.83777        -6.65631        -0.15676
   C       -3.87733        -7.44942        -0.74652
   C       -3.80795        -7.83964        -2.07920
   C       -4.79795        -8.59234        -2.71225
   C       -5.93182        -9.01709        -2.04644
   C       -6.03969        -8.64612        -0.69173
   C       -5.03052        -7.87504        -0.04426
   N       -5.43947        -7.68621         1.22005
   N       -6.58890        -8.29436         1.28929
   N       -7.01296        -8.87675         0.20334
   C       -7.33344        -8.34596         2.50910
   C       -7.01048        -9.78097        -2.65582
   C       -7.55267       -10.92657        -2.04977
   C       -6.93100       -11.59767        -0.88883
   O       -5.86532       -11.40096        -0.39451
   S       -8.02538       -12.91600        -0.33308
   C       -9.14401       -12.69616        -1.69710
   O      -10.11499       -13.38339        -1.85194
   C       -8.68991       -11.56666        -2.53759
   C       -9.33610       -11.16916        -3.72515
   C       -8.76967       -10.04856        -4.34552
   C       -7.66562        -9.37704        -3.82208
   C       -7.44182        -8.16953        -4.65682
   O       -6.63133        -7.30349        -4.56611
   O       -8.41112        -8.17366        -5.63180
   C       -9.24304        -9.25679        -5.51277
   O      -10.16691        -9.43136        -6.24368
   C      -10.47865       -11.90011        -4.22970
   C      -10.68121       -12.20368        -5.52083
   C      -11.79796       -12.98178        -5.97779
   C      -12.36210       -14.06089        -5.39497
   C      -13.71574       -14.51365        -5.84665
   O      -14.28897       -14.18001        -6.85252
   C      -14.19878       -15.39717        -4.76636
   C      -13.17262       -15.59329        -3.82264
   C      -11.96660       -14.90284        -4.27186
   C      -10.70103       -15.19242        -3.85351
   C       -9.52024       -14.63517        -4.38678
   N       -8.51343       -14.23291        -4.76255
   C      -10.40597       -16.14330        -2.84862
   N      -10.11239       -16.91484        -2.05335
   C      -13.41413       -16.35123        -2.68856
   C      -14.67274       -16.91652        -2.52314
   C      -15.68044       -16.73560        -3.47622
   C      -15.44687       -15.96562        -4.60785
  Br      -17.37757       -17.52722        -3.23208
  Br      -15.01000       -17.94026        -0.97262
   H        3.70174         0.63863         5.62212
   H        2.08078         0.82202         0.92088
   H        0.28691        -3.68757         4.91573
   H       -3.60173        -6.57437         1.81184
   H       -2.02923        -6.34826        -0.80542
   H       -2.94419        -7.54472        -2.65559
   H       -4.65825        -8.86895        -3.74531
   H       -6.93949        -7.58865         3.18282
   H       -7.23026        -9.33186         2.96622
   H       -8.38633        -8.16422         2.29897
   H      -11.16401       -12.27568        -3.48169
   H      -10.02047       -11.82680        -6.28801
   H      -12.27659       -12.63525        -6.88920
   H      -12.66171       -16.49849        -1.93053
   H      -16.22029       -15.81240        -5.34444
*
