# ORCA input file
# SCF done       -227.542093233707          0.000928894203
! CAM-B3LYP def2-SVP def2/J RIJCOSX Grid4 TightSCF
%maxcore 5000
%tddft
    Mode sTDDFT
    Ethresh 5.0
    maxcore 5000
end

%pal
  nprocs 6
  end
* xyz 0 1
   C        2.35537         9.32883        -4.96801
   C        2.15499        10.41177        -5.77331
   C        3.20023        11.21194        -6.28728
   N        4.00508        11.89882        -6.73028
   C        0.89319        10.88804        -6.19590
   N       -0.08909        11.32603        -6.59448
   C        3.64239         8.79152        -4.54785
   C        3.42370         7.75170        -3.59660
   C        4.45617         7.03697        -3.05492
   C        5.77781         7.32503        -3.45488
   C        6.00674         8.35840        -4.41158
   C        4.92056         9.08777        -4.94676
   C        7.33164         8.62817        -4.81261
   C        8.38210         7.91906        -4.29507
   C        8.15302         6.90898        -3.34703
   C        6.88057         6.61638        -2.93698
   C        1.98748         7.58135        -3.37899
   O        1.43933         6.88008        -2.55494
   C        1.32273         8.47180        -4.38749
   C        0.03049         8.37046        -4.74691
   C       -0.84425         7.31233        -4.26235
   C       -0.46279         5.96711        -4.25579
   C        0.80579         5.36019        -4.72155
   O        1.66694         5.84665        -5.41002
   N        0.79407         4.04919        -4.24248
   C       -0.45954         3.70401        -3.69291
   O       -0.75138         2.61980        -3.28078
   C       -1.25676         4.95744        -3.71315
   C       -2.52774         5.20228        -3.21188
   C       -2.94254         6.52240        -3.27293
   C       -2.12507         7.54559        -3.76403
   C       -2.84077         8.83905        -3.59956
   O       -2.47309         9.95067        -3.86067
   N       -4.06693         8.49461        -3.05243
   C       -4.22302         7.13781        -2.81651
   O       -5.19366         6.61547        -2.34535
   C        1.88697         3.20136        -4.18107
   C        3.14464         3.63099        -4.38461
   C        4.31679         2.84017        -4.23404
   S        5.85881         3.65599        -4.37743
   C        4.52593         1.50823        -3.95099
   C        3.72516         0.29314        -3.72523
   O        2.52893         0.13901        -3.71920
   N        4.65706        -0.71246        -3.49507
   C        4.28375        -2.09173        -3.26118
   C        4.16954        -2.86244        -4.57156
   C        5.97816        -0.28310        -3.54942
   O        6.94651        -0.98022        -3.37524
   C        5.88841         1.15507        -3.84555
   C        6.77321         2.19406        -4.03812
   C        8.18488         2.16441        -3.97939
   C        8.96047         3.25673        -4.20102
   C       10.37466         3.28603        -4.16033
   C       11.15961         4.38431        -4.44270
   C       12.53116         4.02686        -4.33290
   C       12.54705         2.60442        -3.93101
   C       11.26318         2.17623        -3.83358
   C       13.67750         1.81819        -3.67877
   N       14.58498         1.14744        -3.46605
   C       13.62927         4.81552        -4.59179
   C       15.00052         4.43417        -4.58042
   C       15.77562         5.49868        -4.99468
   C       14.88449         6.62281        -5.25381
   C       13.60714         6.23146        -5.00839
   C       12.48168         7.05387        -5.11014
   N       11.57340         7.75384        -5.18733
   C       17.18181         5.48642        -5.15996
   C       17.90397         6.50608        -5.70220
   C       19.30355         6.42058        -5.87461
   C       20.06684         7.37370        -6.48860
   C       21.50136         7.33282        -6.70875
   C       22.38469         6.41404        -6.20290
   C       23.77471         6.43793        -6.44502
   N       24.91102         6.39758        -6.60286
   C       22.05346         5.33440        -5.35749
   N       21.86787         4.43968        -4.66191
   C       21.85579         8.47458        -7.54441
   C       20.68259         9.24565        -7.78508
   C       19.53336         8.61323        -7.11930
   O       18.39053         9.02136        -7.10307
   C       20.70663        10.38115        -8.54293
   C       21.92855        10.80430        -9.11116
   C       23.10672        10.03706        -8.87857
   C       23.05130         8.86753        -8.08623
   C       24.32032        10.46557        -9.45387
   C       24.36945        11.59651       -10.22269
   C       23.20878        12.35080       -10.45129
   C       22.01432        11.96356        -9.90688
   H        4.26200         6.25336        -2.33687
   H        5.12655         9.85827        -5.67294
   H        7.50285         9.40966        -5.53781
   H        9.39251         8.13000        -4.61068
   H        8.99348         6.36749        -2.93779
   H        6.70034         5.84091        -2.20669
   H       -0.41595         9.07341        -5.43784
   H       -3.14254         4.42301        -2.79137
   H       -4.77935         9.17603        -2.83091
   H        1.64378         2.18499        -3.89483
   H        3.32591         4.66093        -4.65572
   H        3.32467        -2.08677        -2.73801
   H        5.05387        -2.53379        -2.62473
   H        3.40968        -2.41312        -5.20685
   H        3.89064        -3.89223        -4.36825
   H        5.12181        -2.85507        -5.09711
   H        8.61392         1.19958        -3.74642
   H        8.47283         4.19496        -4.44231
   H       10.79809         5.35202        -4.72973
   H       10.94658         1.18787        -3.55838
   H       15.36367         3.45970        -4.31827
   H       15.19437         7.60016        -5.57274
   H       17.69285         4.58261        -4.84938
   H       17.41395         7.40725        -6.03762
   H       19.78145         5.52118        -5.50711
   H       19.80227        10.94752        -8.70933
   H       23.96042         8.30819        -7.93337
   H       25.21134         9.88193        -9.27476
   H       25.30362        11.91617       -10.65946
   H       23.26580        13.23996       -11.06110
   H       21.11733        12.54012       -10.07943
*
