# ORCA input file
# SCF done       -160.903530550564          0.000644349252
! CAM-B3LYP def2-SVP def2/J RIJCOSX Grid4 TightSCF
%maxcore 5000
%tddft
    Mode sTDDFT
    Ethresh 5.0
    maxcore 5000
end

%pal
  nprocs 6
  end
* xyz 0 1
   C       -9.32055         0.87239         4.16690
   N       -9.81037         2.13954         4.24719
   C      -11.04705         2.52754         4.87639
   C      -10.93084         2.52458         6.39831
   C       -8.92018         3.07400         3.67493
   O       -9.14369         4.27149         3.63891
   C       -7.82043         2.26984         3.21030
   C       -8.10764         0.90467         3.54091
   C       -7.01563         0.08829         3.05390
   O       -6.80178        -1.10317         3.09537
   N       -6.14504         1.01279         2.44323
   C       -4.88730         0.58717         1.88179
   C       -3.71490         0.90213         2.80811
   C       -6.61180         2.30802         2.52987
   C       -5.94262         3.41925         1.95343
   C       -6.39110         4.69141         2.10008
   C       -5.80387         5.83024         1.49016
   S       -6.43758         7.41783         1.84439
   C       -5.33879         8.18085         0.74162
   C       -4.51084         7.22472         0.14422
   C       -4.77669         5.91435         0.57443
   C       -3.48138         7.49868        -0.77014
   N       -2.61518         7.66492        -1.50563
   C       -5.40194         9.58411         0.54707
   C       -4.81443        10.25437        -0.47354
   C       -4.91335        11.64904        -0.68375
   S       -5.63553        12.75225         0.47666
   C       -5.38692        14.11931        -0.55529
   C       -4.79787        13.75633        -1.71727
   C       -4.51429        12.36180        -1.79685
   C       -3.93702        12.07938        -3.07574
   C       -3.85324        13.23340        -3.77979
   C       -4.35618        14.42026        -2.98182
   N       -3.50839        13.31335        -5.12189
   C       -2.92337        14.36522        -5.79452
   C       -2.37533        15.58077        -5.15103
   C       -2.89115        14.05773        -7.12747
   C       -3.47453        12.75719        -7.31803
   C       -3.88098        12.25790        -6.03209
   O       -4.43333        11.23995        -5.69430
   C       -3.45106        12.44742        -8.64786
   C       -3.93738        11.22633        -9.32224
   N       -2.87930        13.51247        -9.31702
   C       -2.49031        14.56569        -8.41264
   O       -1.94884        15.58290        -8.76696
   C       -2.71402        13.61245       -10.68711
   O       -3.03110        14.80619       -11.26166
   C       -2.78908        14.65789       -12.55981
   C       -2.32949        13.37981       -12.85124
   C       -2.27584        12.69758       -11.61954
   C       -2.08993        13.25857       -14.31265
   O       -1.70307        12.30943       -14.94411
   C       -2.46259        14.61623       -14.81982
   C       -2.87152        15.42887       -13.76127
   S       -3.31491        16.98914       -14.27817
   C       -2.95524        16.56780       -15.94130
   C       -2.51126        15.26538       -16.05369
   C       -3.14948        17.56288       -16.95927
   C       -2.92308        17.38728       -18.26001
   H       -9.87795         0.03845         4.55130
   H      -11.84227         1.84848         4.55376
   H      -11.27062         3.53739         4.52152
   H      -10.68067         1.53039         6.76222
   H      -11.87365         2.83234         6.84168
   H      -10.15405         3.21670         6.71396
   H       -4.74396         1.05028         0.90094
   H       -4.96970        -0.49552         1.74943
   H       -3.63967         1.97184         2.99228
   H       -2.78707         0.55673         2.36046
   H       -3.85095         0.39641         3.76085
   H       -5.05585         3.22206         1.36937
   H       -7.26866         4.87210         2.70657
   H       -4.23121         5.06398         0.20589
   H       -6.01130        10.13350         1.25371
   H       -4.25135         9.71628        -1.22316
   H       -5.70813        15.08607        -0.22139
   H       -3.65067        11.10458        -3.41860
   H       -5.17623        14.92517        -3.49683
   H       -3.57627        15.15552        -2.78017
   H       -1.76425        15.32103        -4.28778
   H       -3.17297        16.24901        -4.82761
   H       -1.76559        16.10897        -5.88006
   H       -4.62469        10.70716        -8.65917
   H       -3.10558        10.55577        -9.53891
   H       -4.43043        11.46802       -10.26237
   H       -1.94880        11.69621       -11.43600
   H       -2.23633        14.80864       -16.98577
   H       -3.51022        18.51807       -16.60052
   H       -2.56528        16.45483       -18.65975
   H       -3.09272        18.17993       -18.96650
*
