# ORCA input file
# SCF done       -144.170113658277          0.000321398848
! CAM-B3LYP def2-SVP def2/J RIJCOSX Grid4 TightSCF
%maxcore 5000
%tddft
    Mode sTDDFT
    Ethresh 5.0
    maxcore 5000
end

%pal
  nprocs 6
  end
* xyz 0 1
   C        1.72007        -0.02733         1.75152
   N        2.01617         0.50988         0.53834
   C        3.05742         0.06297        -0.35226
   C        2.66956        -1.22789        -1.06841
   C        1.12653         1.55707         0.20610
   O        1.20361         2.19593        -0.82554
   C        0.23630         1.62907         1.33804
   C        0.64364         0.62840         2.27914
   C       -0.22799         0.71996         3.43248
   O       -0.28740         0.09218         4.46625
   N       -1.10257         1.77807         3.11468
   C       -2.12026         2.20470         4.04287
   C       -1.68953         3.43783         4.83438
   C       -0.83512         2.32464         1.87684
   C       -1.56846         3.40748         1.32432
   C       -1.37682         3.85408         0.05673
   C       -2.08233         4.97478        -0.45985
   O       -2.79649         5.74428         0.38325
   C       -3.32218         6.78313        -0.30090
   C       -2.95105         6.68737        -1.64647
   C       -2.16316         5.51262        -1.74854
   C       -1.60745         4.88665        -2.97917
   F       -1.23705         3.61709        -2.80741
   F       -2.50679         4.86196        -3.98727
   F       -0.52959         5.53468        -3.47026
   O       -3.33402         7.61283        -2.54491
   C       -2.58122         7.80737        -3.73121
   C       -4.08373         7.75404         0.40929
   C       -4.73986         8.77597        -0.17600
   C       -5.46832         9.80146         0.51972
   C       -6.16851        10.79958        -0.13814
   C       -6.28986        11.03177        -1.60487
   C       -5.06277        11.77077        -2.14888
   S       -6.90496        11.89418         0.96459
   C       -6.28086        11.02084         2.34278
   C       -5.54968         9.94050         1.92857
   C       -6.56464        11.50230         3.65769
   C       -6.10985        10.94376         4.79524
   C       -6.36431        11.42720         6.12690
   C       -7.16887        12.52961         6.45480
   N       -7.34976        12.93841         7.69022
   C       -6.73872        12.26480         8.66470
   N       -5.96501        11.19611         8.47438
   C       -5.78617        10.79204         7.23779
   C       -6.92906        12.72877        10.03405
   C       -7.72287        13.83706        10.34134
   N       -7.88924        14.25727        11.58194
   C       -7.26728        13.57811        12.53053
   N       -6.49415        12.51883        12.36252
   C       -6.32465        12.09553        11.12346
   H        2.30443        -0.83238         2.15743
   H        3.98067        -0.07928         0.21767
   H        3.20441         0.86404        -1.08174
   H        2.48738        -2.02554        -0.35136
   H        3.46963        -1.53433        -1.73641
   H        1.76661        -1.07254        -1.65364
   H       -2.27236         1.36703         4.72970
   H       -3.05289         2.39260         3.50336
   H       -0.79140         3.21449         5.40476
   H       -2.47731         3.72605         5.52516
   H       -1.47876         4.27424         4.17151
   H       -2.31336         3.88677         1.94253
   H       -0.65918         3.36785        -0.58632
   H       -2.85276         8.80217        -4.08256
   H       -2.84323         7.07654        -4.49792
   H       -1.50809         7.77422        -3.53529
   H       -4.09623         7.61302         1.48013
   H       -4.71742         8.84544        -1.25147
   H       -7.18289        11.62803        -1.80164
   H       -6.39845        10.07572        -2.12154
   H       -4.95750        12.73687        -1.66062
   H       -5.16870        11.93262        -3.21852
   H       -4.15919        11.19333        -1.96896
   H       -5.07308         9.26480         2.61350
   H       -7.18328        12.38801         3.69824
   H       -5.48554        10.06168         4.74157
   H       -7.68795        13.10360         5.69819
   H       -5.15118         9.92239         7.11234
   H       -8.22983        14.38891         9.56151
   H       -7.40441        13.92433        13.54697
   H       -5.69221        11.23003        10.97995
*
