# ORCA input file
# SCF done       -179.861195452328          0.000799449302
! CAM-B3LYP def2-SVP def2/J RIJCOSX Grid4 TightSCF
%maxcore 5000
%tddft
    Mode sTDDFT
    Ethresh 5.0
    maxcore 5000
end

%pal
  nprocs 6
  end
* xyz 0 1
   C       -0.60054         1.68648        -1.29466
   S       -0.17590         0.49163        -0.16341
   C       -1.52022        -0.52135        -0.58153
   C       -2.29584         0.08910        -1.55914
   C       -1.74430         1.35145        -1.99128
   N       -2.31857         2.08636        -2.96454
   C       -3.41460         1.60682        -3.47156
   N       -4.10122         0.53699        -3.04345
   C       -3.58041        -0.20514        -2.09798
   C       -4.39447        -1.22842        -1.53825
   N       -5.05240        -2.02466        -1.04298
   C       -1.67786        -1.81992        -0.01917
   S       -1.28717        -2.18441         1.64535
   C       -2.12543        -2.96022        -0.64315
   C       -2.50712        -3.35464        -2.00838
   O       -2.53299        -2.70559        -3.02629
   N       -2.82340        -4.69996        -1.90857
   C       -3.26963        -5.49045        -3.03608
   C       -2.09024        -6.07681        -3.80372
   C       -2.64889        -5.22695        -0.63632
   O       -2.85578        -6.38104        -0.34244
   C       -2.17511        -4.10176         0.18671
   C       -1.75393        -3.86886         1.48350
   C       -1.64348        -4.71254         2.61425
   C       -1.98350        -6.02985         2.60746
   C       -1.86469        -6.84361         3.75763
   N       -2.17311        -8.18047         3.78039
   C       -2.58996        -8.98563         2.65667
   C       -1.41373        -9.35373         1.75659
   C       -1.97454        -8.74804         5.05581
   O       -2.17733        -9.91409         5.31732
   C       -1.51451        -7.63822         5.86388
   C       -1.45361        -6.49173         5.04939
   C       -0.99123        -5.39778         5.87478
   O       -0.76142        -4.23126         5.62143
   N       -0.81018        -5.96212         7.15100
   C       -0.36131        -5.12215         8.23612
   C       -1.52536        -4.62372         9.08969
   C       -1.12448        -7.30405         7.16654
   C       -1.08012        -8.24956         8.21217
   C       -0.81639        -8.07092         9.53903
   C       -0.78653        -9.11218        10.49223
   C       -0.56100        -8.93581        11.84801
   C       -0.58038       -10.19276        12.49857
   C       -0.83813       -11.19091        11.44291
   C       -0.96395       -10.53767        10.25787
   C       -0.94563       -12.57593        11.61112
   N       -1.03387       -13.71631        11.71934
   C       -0.39389       -10.44854        13.84417
   C       -0.36509       -11.70526        14.49587
   C       -0.13795       -11.51463        15.84828
   C       -0.02646       -10.08243        16.07815
   C       -0.17246        -9.43340        14.89393
   C       -0.12485        -8.04575        14.73106
   N       -0.08116        -6.90100        14.63671
   C       -0.00995       -12.47250        16.88010
   C       -0.07891       -13.82087        16.70437
   C        0.06618       -14.76785        17.73564
   S        0.34429       -14.37363        19.40389
   C        0.39734       -16.01051        19.88998
   C        0.21059       -16.86186        18.82618
   C        0.01801       -16.16304        17.58223
   N       -0.18001       -16.80811        16.42538
   C       -0.18979       -18.11185        16.48558
   N       -0.02178       -18.87624        17.57352
   C        0.17554       -18.28353        18.72626
   C        0.36116       -19.06800        19.89581
   N        0.51398       -19.64545        20.87305
   H        0.00539         2.55921        -1.42846
   H       -3.86506         2.15282        -4.28896
   H       -3.85624        -4.83334        -3.68208
   H       -3.90430        -6.28728        -2.64185
   H       -1.45627        -5.27906        -4.18367
   H       -2.45389        -6.66328        -4.64246
   H       -1.50045        -6.72102        -3.15541
   H       -1.26577        -4.25549         3.52009
   H       -2.36017        -6.47954         1.70055
   H       -3.35432        -8.45293         2.08593
   H       -3.02740        -9.89307         3.08202
   H       -0.96546        -8.46345         1.32238
   H       -1.75960        -9.99460         0.95099
   H       -0.65699        -9.88696         2.32734
   H        0.12983        -4.26425         7.76637
   H        0.37810        -5.66081         8.83284
   H       -2.17949        -3.99801         8.48753
   H       -1.14749        -4.03329         9.91980
   H       -2.11078        -5.45136         9.48413
   H       -1.31457        -9.24801         7.86570
   H       -0.62399        -7.08868         9.94232
   H       -0.39284        -7.99451        12.33360
   H       -1.15885       -10.99431         9.30576
   H       -0.49369       -12.64743        14.00199
   H        0.14553        -9.62944        17.03755
   H        0.16412       -12.08786        17.87871
   H       -0.24910       -14.24397        15.72415
   H        0.56110       -16.26403        20.91858
   H       -0.34950       -18.64684        15.55990
*
