# ORCA input file
# SCF done       -195.748532699070          0.000770594416
! CAM-B3LYP def2-SVP def2/J RIJCOSX Grid4 TightSCF
%maxcore 5000
%tddft
    Mode sTDDFT
    Ethresh 5.0
    maxcore 5000
end

%pal
  nprocs 6
  end
* xyz 0 1
   C       17.99119        -3.04695        -3.49387
   O       17.43649        -2.87629        -2.42302
   C       19.23742        -2.46211        -3.96096
   C       19.54793        -2.90335        -5.24194
   C       20.75128        -2.35482        -5.72417
   C       21.31061        -1.52089        -4.80037
   S       20.40554        -1.38085        -3.34040
   C       18.51013        -3.81136        -5.69189
   C       18.50094        -4.43497        -6.91059
   C       19.53566        -4.23347        -7.84986
   N       20.36602        -4.08333        -8.62689
   C       17.51327        -5.32234        -7.38373
   N       16.74936        -6.05214        -7.83319
   C       17.53651        -3.90264        -4.61190
   C       16.38974        -4.64676        -4.63577
   C       15.38079        -4.80391        -3.66817
   C       14.25686        -5.60556        -3.90160
   C       13.38272        -5.61498        -2.83157
   C       13.84313        -4.81409        -1.75729
   S       15.33550        -4.05702        -2.07309
   C       12.88356        -4.86880        -0.72017
   C       11.81825        -5.69855        -1.13434
   C       12.09900        -6.19645        -2.47061
   C       11.31770        -7.02279        -3.22318
   C       11.69187        -7.43840        -4.51891
   N       11.98941        -7.77971        -5.57213
   C       10.07905        -7.51464        -2.75871
   N        9.07066        -7.91676        -2.38962
   C       10.81089        -5.79398        -0.18557
   C       11.09422        -5.04450         0.95167
   S       12.64079        -4.22184         0.84229
   C       10.25906        -4.88277         2.08919
   C       10.64834        -4.08642         3.18885
   C        9.79053        -3.85190         4.31272
   N       10.22551        -3.07168         5.32204
   C       11.40763        -2.54931         5.26760
   C       12.25790        -2.78214         4.15436
   N       11.87191        -3.52192         3.16595
   F       13.47194        -2.24727         4.09654
   F       11.80042        -1.78858         6.28302
   C        8.48952        -4.39356         4.40189
   C        8.10870        -5.23111         3.32601
   C        8.97658        -5.47336         2.19515
   N        8.40255        -6.28813         1.30846
   S        6.94732        -6.70866         1.82732
   N        6.95176        -5.88305         3.19926
   C        7.62621        -4.08436         5.48637
   C        6.30737        -4.49866         5.64128
   C        5.72985        -3.97538         6.78851
   C        6.61824        -3.16239         7.52614
   S        8.15775        -3.04294         6.79461
   C        5.93006        -2.66895         8.65946
   C        4.60634        -3.15847         8.63275
   C        4.44377        -4.00646         7.46521
   C        3.32409        -4.69741         7.10524
   C        3.27173        -5.50007         5.94622
   N        3.22277        -6.14415         4.99901
   C        2.14719        -4.63884         7.88129
   N        1.19775        -4.57466         8.52150
   C        3.84707        -2.72796         9.71187
   C        4.57467        -1.92323        10.57720
   S        6.22185        -1.67413        10.00871
   C        4.14547        -1.26653        11.75282
   C        3.06041        -1.51978        12.53142
   C        2.59248        -0.43753        13.46207
   O        3.19837         0.56589        13.75606
   C        1.25989        -0.87403        13.85541
   C        0.97096        -2.13478        13.34306
   C        2.12684        -2.62998        12.61816
   C        2.34141        -3.95067        12.32433
   C        1.35956        -4.93503        12.57001
   N        0.57406        -5.74753        12.76522
   C        3.55574        -4.48179        11.85130
   N        4.53476        -4.96335        11.49374
   C       -0.31166        -2.58682        13.70406
   C       -0.95641        -1.65851        14.46801
   S       -0.03054        -0.23785        14.77796
   H       21.18425        -2.55505        -6.68641
   H       22.22466        -0.96821        -4.89750
   H       16.19793        -5.21448        -5.53898
   H       14.11557        -6.13960        -4.82479
   H        9.90400        -6.36179        -0.28177
   H        5.82540        -5.14342         4.92974
   H        2.80217        -2.93955         9.84647
   H        4.72012        -0.39372        12.04876
   H       -0.74121        -3.52780        13.41472
   H       -1.94394        -1.73234        14.87993
*
