# ORCA input file
# SCF done       -164.498255752517          0.000959605651
! CAM-B3LYP def2-SVP def2/J RIJCOSX Grid4 TightSCF
%maxcore 5000
%tddft
    Mode sTDDFT
    Ethresh 5.0
    maxcore 5000
end

%pal
  nprocs 6
  end
* xyz 0 1
   C       -4.10398        -1.12974        -0.59883
   C       -4.44204        -0.14504        -1.48944
   C       -3.95516         1.16300        -1.36589
   C       -3.10414         1.55468        -0.34650
   C       -2.73656         0.55269         0.59307
   C       -3.24424        -0.78815         0.45639
   N       -2.79706        -1.59116         1.42470
   S       -1.84278        -0.74842         2.39905
   N       -1.94125         0.67226         1.65495
   C       -2.61174         2.89855        -0.23237
   C       -1.74259         3.40217         0.71334
   C       -1.48384         4.76065         0.52331
   C       -2.16472         5.29633        -0.58432
   S       -3.11635         4.12803        -1.38618
   C       -1.84820         6.67026        -0.69044
   C       -0.96450         7.01109         0.35419
   C       -0.67998         5.80915         1.12822
   C        0.20558         5.67875         2.15584
   C        1.04754         6.73095         2.57989
   N        1.78049         7.54937         2.90576
   C        0.39521         4.45430         2.83286
   N        0.55034         3.46776         3.39606
   C       -0.63120         8.35904         0.37132
   C       -1.23839         9.05117        -0.67074
   S       -2.23615         8.00708        -1.67845
   C       -1.12176        10.42640        -0.93959
   C       -0.52453        11.39605        -0.12141
   C       -0.55525        12.71560        -0.69501
   N        0.04529        13.74119        -0.08778
   C        0.59908        13.50654         1.08103
   C        1.35020        14.62153         1.71175
   O        1.57420        15.66551         1.13846
   C        1.83843        14.34547         3.07476
   C        1.68264        13.17185         3.69599
   C        0.98745        12.01652         3.10082
   O        0.79002        10.98895         3.71246
   C        0.51176        12.22421         1.70962
   N       -0.01711        11.18928         1.09548
   C       -1.21230        12.76224        -1.93288
   S       -1.74076        11.16978        -2.38234
   C       -1.43855        13.90129        -2.72578
   C       -1.21629        15.22263        -2.35408
   C       -1.55534        16.10522        -3.37118
   C       -2.01527        15.45931        -4.53711
   S       -2.06839        13.76187        -4.36420
   C       -2.28929        16.43953        -5.51855
   C       -2.01052        17.70803        -4.97956
   C       -1.57104        17.54398        -3.60431
   C       -1.29978        18.52954        -2.70299
   C       -1.34912        19.89751        -3.04860
   N       -1.37843        21.01141        -3.31797
   C       -1.01244        18.26800        -1.34476
   N       -0.82986        18.08744        -0.22798
   C       -2.25407        18.74544        -5.88137
   C       -2.70915        18.28324        -7.09897
   S       -2.84512        16.52882        -7.12982
   C       -3.05668        19.05531        -8.25858
   C       -3.48771        18.46810        -9.43583
   C       -3.83045        19.20939       -10.57439
   C       -3.76074        20.57737       -10.59458
   C       -3.33094        21.22618        -9.42682
   C       -2.97451        20.47470        -8.25106
   N       -2.59372        21.27141        -7.25414
   S       -2.67563        22.79966        -7.74361
   N       -3.19486        22.54063        -9.23797
   H       -4.47242        -2.13855        -0.68425
   H       -5.10131        -0.37240        -2.31353
   H       -4.25683         1.89716        -2.09949
   H       -1.33565         2.78838         1.49579
   H        0.00005         8.85260         1.08824
   H        2.35294        15.16984         3.54997
   H        2.06097        13.00996         4.69638
   H       -0.81836        15.48126        -1.38934
   H       -2.11278        19.79279        -5.68747
   H       -3.56326        17.39093        -9.47986
   H       -4.15673        18.67720       -11.45519
   H       -4.02177        21.15713       -11.46424
*
