# ORCA input file
# SCF done       -221.397456507412          0.000819528941
! CAM-B3LYP def2-SVP def2/J RIJCOSX Grid4 TightSCF
%maxcore 5000
%tddft
    Mode sTDDFT
    Ethresh 5.0
    maxcore 5000
end

%pal
  nprocs 6
  end
* xyz 0 1
   C       -4.38692         1.59608        -2.26826
   C       -4.79548         0.30914        -2.51072
   C       -4.09096        -0.60627        -3.32049
   N       -3.56920        -1.40338        -3.96164
   C       -5.96622        -0.29671        -2.00957
   N       -6.89848        -0.86730        -1.65535
   C       -3.18551         2.21404        -2.82003
   C       -3.11419         3.55545        -2.36704
   C       -2.09449         4.40582        -2.71886
   C       -1.09384         3.91041        -3.56038
   C       -1.17162         2.57024        -4.00858
   C       -2.20368         1.70990        -3.65167
   S        0.16889         2.17326        -5.03701
   C        0.80710         3.77139        -4.86326
   C        0.05825         4.57076        -4.07256
   C       -4.27458         3.83734        -1.50748
   O       -4.53324         4.89826        -0.96916
   C       -5.05012         2.58986        -1.44371
   C       -6.19360         2.39900        -0.71387
   C       -6.89258         3.28343         0.12481
   C       -8.04594         2.88821         0.80971
   C       -8.62300         3.88650         1.57952
   C       -9.78591         3.67987         2.45983
   C       -9.61868         3.90682         3.84349
   C      -10.66684         3.70350         4.72600
   C      -11.88548         3.24552         4.24833
   C      -12.06595         3.01539         2.90432
   C      -11.03104         3.24703         1.99438
   O      -11.36250         3.02406         0.69308
   C      -10.79545         3.80755        -0.33649
   O       -8.38013         4.34122         4.22257
   C       -8.12622         4.54930         5.59444
   C       -7.87893         5.07240         1.50905
   S       -6.49484         4.94009         0.49687
   C       -8.15685         6.24569         2.27667
   C       -7.13389         6.99006         2.90174
   C       -7.40680         7.91339         3.97026
   N       -6.37480         8.56004         4.55444
   C       -5.17003         8.32365         4.15308
   C       -4.89921         7.37893         3.12731
   N       -5.85769         6.74582         2.53907
   F       -3.64995         7.12063         2.75175
   F       -4.18128         8.99591         4.74323
   C       -8.72018         8.12246         4.45234
   C       -9.74663         7.52374         3.69043
   C       -9.47152         6.62090         2.60700
   N      -10.59721         6.17193         2.04203
   S      -11.85800         6.77511         2.81941
   N      -11.05857         7.65948         3.89615
   C       -9.03653         8.74463         5.69235
   C       -8.19763         9.18446         6.70150
   C       -8.86103         9.54343         7.87517
   C       -8.15888        10.00990         9.07407
   C       -8.50136        11.22973         9.67629
   C       -7.81406        11.65922        10.80562
   C       -6.79236        10.88295        11.31964
   C       -6.43068         9.68594        10.73107
   C       -7.10777         9.24265         9.60019
   O       -6.84723         8.07786         8.95315
   C       -5.84059         7.23276         9.45543
   O       -9.49485        11.93134         9.06646
   C       -9.92824        13.13872         9.64709
   C      -10.24304         9.33422         7.78798
   S      -10.69455         8.82494         6.18685
   C      -11.19782         9.46506         8.81341
   C      -12.48344         9.00487         8.83959
   C      -13.20686         8.05855         8.01821
   C      -12.71570         6.90993         7.45058
   C      -13.48324         6.00651         6.69195
   N      -14.03687         5.24658         6.03179
   C      -11.39393         6.44334         7.59781
   N      -10.36164         5.95397         7.72309
   C      -14.62386         8.38193         8.14029
   C      -14.78689         9.31071         9.20057
   C      -13.46067         9.66456         9.74444
   O      -13.21085        10.38707        10.68390
   C      -16.02063         9.77882         9.58244
   C      -17.14017         9.32080         8.87984
   C      -16.96350         8.40484         7.81545
   C      -15.71711         7.92111         7.43471
   S      -18.48155         7.99165         7.08299
   C      -19.32341         9.02203         8.18844
   C      -18.51242         9.65124         9.06635
   H       -2.07152         5.42126        -2.35501
   H       -2.21457         0.69795        -4.02019
   H        1.71917         4.01658        -5.37189
   H        0.29947         5.59431        -3.84957
   H       -6.65076         1.41805        -0.76888
   H       -8.43412         1.88533         0.75330
   H      -10.54807         3.89717         5.77915
   H      -12.70130         3.09570         4.93760
   H      -13.01043         2.67112         2.51611
   H      -10.51906         4.79862         0.02684
   H      -11.57122         3.90074        -1.09852
   H       -9.92241         3.31880        -0.77867
   H       -8.22847         3.62025         6.16236
   H       -8.78279         5.31013         6.02685
   H       -7.09387         4.89289         5.64762
   H       -7.13212         9.22652         6.58288
   H       -8.06344        12.59134        11.28460
   H       -6.26285        11.22136        12.19734
   H       -5.62542         9.10996        11.15597
   H       -4.85789         7.71439         9.42432
   H       -5.83757         6.36367         8.79950
   H       -6.05774         6.91043        10.47834
   H      -10.31429        12.98150        10.65882
   H      -10.73504        13.49420         9.00824
   H       -9.12859        13.88547         9.66978
   H      -10.91408        10.07223         9.66502
   H      -16.12045        10.47799        10.39812
   H      -15.62591         7.22990         6.61298
   H      -20.39070         9.09442         8.10932
   H      -18.85800        10.33006         9.82488
*
