# ORCA input file
# SCF done       -225.630853564121          0.000623015930
! CAM-B3LYP def2-SVP def2/J RIJCOSX Grid4 TightSCF
%maxcore 5000
%tddft
    Mode sTDDFT
    Ethresh 5.0
    maxcore 5000
end

%pal
  nprocs 6
  end
* xyz 0 1
   C       -3.31427        -3.79720       -10.94304
   C       -3.36443        -4.62531       -12.02921
   F       -2.98916        -4.17738       -13.23539
   C       -3.81001        -5.95522       -11.89693
   F       -3.84916        -6.74497       -12.97946
   C       -4.20019        -6.43920       -10.67955
   C       -4.16159        -5.61001        -9.54216
   C       -3.71036        -4.26521        -9.67428
   C       -3.66464        -3.41264        -8.54663
   C       -4.06226        -3.88928        -7.32590
   C       -4.51500        -5.23262        -7.20564
   C       -4.56587        -6.08115        -8.27268
   C       -4.89869        -5.48723        -5.80450
   O       -5.31743        -6.53832        -5.35279
   C       -4.67912        -4.22807        -5.08661
   C       -4.13590        -3.25507        -6.01010
   C       -3.74181        -1.96887        -5.73502
   C       -3.78561        -1.34232        -4.47309
   N       -3.78466        -0.75780        -3.48359
   C       -3.21917        -1.08050        -6.69746
   N       -2.78781        -0.30718        -7.42869
   C       -4.98574        -3.99638        -3.76558
   C       -5.54595        -4.83706        -2.79917
   C       -5.85329        -4.37502        -1.50812
   C       -6.43603        -5.31594        -0.68950
   C       -6.56686        -6.55220        -1.36977
   S       -5.98792        -6.52399        -2.98112
   C       -7.18395        -7.57999        -0.62763
   C       -7.60252        -7.22858         0.67235
  Si       -7.14167        -5.45039         1.04204
   C       -5.84307        -5.29113         2.38140
   C       -8.62197        -4.34014         1.32495
   C       -8.23529        -8.29135         1.29547
   C       -8.29845        -9.44617         0.51835
   S       -7.53820        -9.21282        -1.03422
   C       -8.90232       -10.68180         0.87111
   C       -8.77903       -11.83343         0.06055
   C       -9.38233       -13.08776         0.40287
   N       -9.19898       -14.14920        -0.40716
   C       -8.49061       -14.02319        -1.48195
   C       -7.90120       -12.77902        -1.82553
   N       -8.05105       -11.74027        -1.06964
   F       -7.17419       -12.64708        -2.93037
   F       -8.32817       -15.09530        -2.25091
   C      -10.17848       -13.26192         1.55750
   C      -10.31344       -12.11154         2.37319
   C       -9.67666       -10.85392         2.04522
   N       -9.93479        -9.92205         2.96306
   S      -10.86713       -10.54562         4.11017
   N      -10.99953       -12.02912         3.51331
   C      -10.78989       -14.50549         1.86639
   C      -11.68493       -14.76715         2.90114
   C      -12.10394       -16.08623         2.96309
   C      -11.49842       -16.85520         1.94916
   S      -10.46179       -15.93864         0.92792
   C      -11.83477       -18.22337         1.95159
   C      -12.72836       -18.63793         2.95927
  Si      -13.24667       -17.15892         3.99016
   C      -12.72832       -17.29613         5.78384
   C      -15.05354       -16.72451         3.77101
   C      -12.94363       -20.00408         2.90338
   C      -12.27041       -20.64917         1.86730
   S      -11.30631       -19.50804         0.94880
   C      -12.24569       -22.03957         1.65929
   C      -11.75661       -22.76378         0.60841
   C      -11.34234       -24.17214         0.82788
   O      -11.60008       -24.86736         1.78462
   C      -10.49632       -24.50996        -0.33722
   C       -9.75658       -25.63368        -0.56473
   C       -8.98475       -25.72010        -1.74568
   C       -8.99420       -24.63494        -2.66938
   C       -8.21498       -24.72536        -3.84002
   C       -7.46376       -25.84080        -4.08348
   C       -7.45593       -26.91335        -3.17004
   C       -8.20048       -26.85594        -2.02541
   F       -6.70790       -27.99470        -3.43298
   F       -6.72366       -25.92476        -5.19773
   C       -9.77873       -23.48681        -2.41138
   C      -10.52158       -23.42875        -1.26393
   C      -11.43057       -22.40623        -0.75091
   C      -12.07283       -21.46350        -1.51314
   C      -13.16581       -20.71170        -1.03740
   N      -14.09145       -20.12673        -0.69193
   C      -11.79095       -21.23568        -2.87396
   N      -11.58703       -21.01395        -3.98158
   H       -2.97032        -2.78156       -11.06168
   H       -4.53923        -7.45975       -10.59462
   H       -3.31880        -2.40097        -8.68248
   H       -4.91308        -7.09586        -8.15089
   H       -4.79316        -2.99738        -3.39325
   H       -5.64824        -3.36027        -1.21383
   H       -4.98979        -5.94409         2.20708
   H       -6.24346        -5.54382         3.36118
   H       -5.45845        -4.27546         2.44942
   H       -9.36305        -4.43190         0.53308
   H       -8.33453        -3.29178         1.37317
   H       -9.12500        -4.57334         2.26122
   H       -8.65003        -8.25711         2.28547
   H      -12.00360       -13.99493         3.57601
   H      -11.67938       -17.56581         5.89226
   H      -13.30827       -18.04936         6.31329
   H      -12.87253       -16.35689         6.31377
   H      -15.34061       -16.68864         2.72159
   H      -15.28925       -15.75309         4.20124
   H      -15.70389       -17.45119         4.25396
   H      -13.58581       -20.54167         3.57845
   H      -12.57092       -22.63596         2.50736
   H       -9.75737       -26.44579         0.14626
   H       -8.21225       -23.91428        -4.55129
   H       -8.18338       -27.68543        -1.33590
   H       -9.76371       -22.67540        -3.12166
*
