# ORCA input file
# SCF done       -189.832596560827          0.000743000729
! CAM-B3LYP def2-SVP def2/J RIJCOSX Grid4 TightSCF
%maxcore 5000
%tddft
    Mode sTDDFT
    Ethresh 5.0
    maxcore 5000
end

%pal
  nprocs 6
  end
* xyz 0 1
   C       -2.08264        -9.19024         7.37664
   O       -1.92350        -9.33643         6.17989
   C       -2.04296       -10.24901         8.40406
   C       -2.23826        -9.67407         9.67283
   C       -2.22418       -10.48172        10.79731
   C       -2.01638       -11.84760        10.63417
   C       -1.82893       -12.40783         9.36923
   C       -1.84183       -11.60264         8.23719
  Br       -1.54835       -14.26620         9.17918
  Br       -1.98651       -12.94753        12.17082
   C       -2.42288        -8.23059         9.51500
   C       -2.67607        -7.34919        10.53402
   C       -2.77339        -7.72082        11.89215
   N       -2.85925        -7.96116        13.01095
   C       -2.88058        -5.96105        10.38423
   N       -3.06096        -4.82763        10.34483
   C       -2.30647        -7.93604         8.10247
   C       -2.31911        -6.68969         7.52443
   C       -2.21416        -6.33465         6.17602
   C       -2.16143        -4.99881         5.75828
   C       -2.04145        -4.80503         4.37110
   C       -2.01047        -3.41808         4.06214
   C       -2.09525        -2.59831         5.14353
   S       -2.21693        -3.51047         6.63192
   C       -2.10140        -1.11480         5.15768
   F       -1.91835        -2.94109         2.80775
   C       -2.04216        -6.02455         3.68017
   S       -2.15213        -7.38278         4.77199
   C       -1.93728        -6.27767         2.30561
   C       -2.26872        -7.50157         1.69839
   C       -1.99964        -7.50784         0.29548
   N       -2.27957        -8.55741        -0.46754
   C       -2.82803        -9.59949         0.12348
   C       -3.16253       -10.75932        -0.73849
   O       -2.90102       -10.78192        -1.92515
   C       -3.82840       -11.87349        -0.05020
   C       -4.10659       -11.86819         1.25802
   C       -3.79062       -10.74952         2.16681
   O       -4.07773       -10.77197         3.34262
   C       -3.11284        -9.59044         1.52489
   N       -2.83290        -8.55459         2.28858
   C       -1.45985        -6.30190        -0.17937
   S       -1.32478        -5.15939         1.11290
   C       -1.15505        -6.11216        -1.53083
   C       -0.76803        -4.99334        -2.25373
   C       -0.66441        -5.21292        -3.64719
   C       -0.29688        -4.01395        -4.31365
   C       -0.11816        -2.94395        -3.49428
   S       -0.41615        -3.35864        -1.81665
   C        0.27808        -1.56672        -3.87540
   F       -0.12036        -3.94810        -5.64109
   C       -0.99966        -6.51524        -4.02020
   S       -1.34865        -7.47563        -2.60154
   C       -1.03972        -7.07714        -5.31214
   C       -1.68943        -8.22390        -5.66678
   C       -1.26808        -8.99243        -6.86917
   O       -0.57693        -8.60756        -7.78081
   C       -1.81911       -10.35193        -6.65375
   C       -2.62629       -10.35562        -5.50099
   C       -2.70663        -8.99704        -4.97836
   C       -3.73611        -8.51062        -4.21984
   C       -3.91646        -7.13676        -3.95200
   N       -4.11347        -6.02491        -3.74529
   C       -4.75194        -9.30998        -3.65825
   N       -5.60268        -9.90224        -3.16614
   C       -3.19869       -11.53085        -5.05037
   C       -2.96867       -12.69324        -5.77518
   C       -2.19395       -12.68170        -6.93741
   C       -1.60572       -11.50404        -7.38273
  Br       -1.92002       -14.27606        -7.91578
  Br       -3.72098       -14.30942        -5.15397
   H       -2.36444       -10.08801        11.79081
   H       -1.69993       -12.02091         7.25288
   H       -2.40081        -5.83402         8.18516
   H       -2.01798        -0.73675         4.14145
   H       -1.26990        -0.73438         5.74979
   H       -3.02399        -0.74243         5.60175
   H       -4.08862       -12.71534        -0.67741
   H       -4.60040       -12.70812         1.72781
   H        0.43455        -1.51387        -4.95027
   H        1.19700        -1.27864        -3.36575
   H       -0.49729        -0.85514        -3.59334
   H       -0.44127        -6.60015        -6.08147
   H       -3.77714       -11.56274        -4.14149
   H       -0.99556       -11.49182        -8.27256
*
