# ORCA input file
# SCF done       -214.424725300502          0.000885235452
! CAM-B3LYP def2-SVP def2/J RIJCOSX Grid4 TightSCF
%maxcore 5000
%tddft
    Mode sTDDFT
    Ethresh 5.0
    maxcore 5000
end

%pal
  nprocs 6
  end
* xyz 0 1
   C       -1.18017         0.80104        -2.31967
   C       -0.91608         1.58513        -3.41268
   C       -1.08020         1.15158        -4.74540
   N       -1.19009         0.84537        -5.84544
   C       -0.35717         2.87499        -3.33792
   N        0.11938         3.91972        -3.31808
   C       -1.52898        -0.61503        -2.37563
   C       -1.22216        -1.20944        -1.11641
   C       -1.40490        -2.54331        -0.88948
   C       -1.92457        -3.35301        -1.92431
   C       -2.25734        -2.75937        -3.17660
   C       -2.04988        -1.37653        -3.38649
   C       -2.78690        -3.57632        -4.19588
   C       -2.97401        -4.91648        -3.99234
   C       -2.64274        -5.50071        -2.76066
   C       -2.12944        -4.73574        -1.74869
   C       -0.73488        -0.17055        -0.19538
   O       -0.33009        -0.29794         0.93706
   C       -0.90052         1.11848        -0.93416
   C       -0.85386         2.27865        -0.22564
   C       -1.32543         3.56198        -0.58429
   C       -2.24454         3.91528        -1.56103
   C       -2.46965         5.28564        -1.60005
   C       -1.72405         5.99045        -0.63611
   S       -0.76623         4.96186         0.32239
   C       -2.00554         7.37242        -0.78086
   C       -2.91959         7.54229        -1.83532
   C       -3.24659         6.23433        -2.38199
   C       -4.09252         5.93933        -3.40873
   C       -4.85168         6.92040        -4.08346
   N       -5.49928         7.70018        -4.61759
   C       -4.28070         4.60818        -3.83979
   N       -4.42551         3.52167        -4.17609
   C       -3.24188         8.87955        -2.07035
   C       -2.58668         9.72646        -1.19498
   S       -1.55667         8.85364        -0.06788
   C       -2.65980        11.14551        -1.10321
   C       -3.16054        12.04872        -2.03167
   C       -3.61724        11.66253        -3.30235
   N       -3.95838        11.33522        -4.34673
   C       -3.07789        13.39540        -1.57743
   C       -2.50153        13.46678        -0.31382
   S       -2.06487        11.93822         0.33951
   S       -2.33615        15.06289         0.33996
   C       -3.06107        15.66565        -1.11350
   C       -3.41271        14.69998        -2.05012
   C       -4.00624        15.29236        -3.20015
   C       -4.49031        14.58697        -4.31278
   N       -4.90481        14.03986        -5.23175
   C       -4.08231        16.67630        -3.10665
   S       -3.42743        17.27487        -1.59510
   C       -4.59574        17.61767        -4.04056
   C       -4.65124        18.98875        -3.84574
   C       -5.19267        19.65099        -4.94383
   C       -5.55144        18.77301        -5.98201
   S       -5.22808        17.13856        -5.60668
   C       -6.07951        19.53564        -7.05386
   C       -6.04975        20.90052        -6.69187
   C       -5.50895        21.01346        -5.34690
   C       -5.34958        22.14416        -4.60293
   C       -5.73110        23.42775        -5.05247
   N       -6.04817        24.48060        -5.37508
   C       -4.80567        22.10408        -3.30072
   N       -4.36235        22.07125        -2.24371
   C       -6.51764        21.74205        -7.69294
   C       -6.91153        21.03890        -8.82389
   S       -6.70818        19.29326        -8.61180
   C       -7.47133        21.44948       -10.05266
   C       -7.57997        22.69232       -10.60998
   C       -8.26399        22.95932       -11.86658
   C       -9.13886        22.12735       -12.51604
   C       -9.78576        22.45482       -13.72667
   N      -10.33869        22.65512       -14.71246
   C       -9.55626        20.85708       -12.06556
   N       -9.96240        19.82791       -11.75720
   C       -7.92975        24.31602       -12.27998
   C       -7.13130        24.91202       -11.26391
   C       -6.90730        23.94570       -10.17695
   O       -6.26142        24.14335        -9.16998
   C       -6.67606        26.19544       -11.35991
   C       -7.00328        26.95689       -12.50373
   C       -7.79216        26.36454       -13.53200
   C       -8.25008        25.03323       -13.40252
   C       -8.10728        27.13145       -14.67217
   C       -7.66846        28.42210       -14.79094
   C       -6.89404        29.00490       -13.77676
   C       -6.56832        28.28786       -12.65753
   H       -1.15714        -2.97617         0.06830
   H       -2.32116        -0.94979        -4.33940
   H       -3.03711        -3.12249        -5.14340
   H       -3.37802        -5.53435        -4.78009
   H       -2.79682        -6.55970        -2.61732
   H       -1.87326        -5.17995        -0.79797
   H       -0.45380         2.18046         0.77942
   H       -2.74868         3.19477        -2.17849
   H       -3.92057         9.22315        -2.82886
   H       -4.30851        19.46397        -2.94384
   H       -6.56633        22.81383        -7.63021
   H       -7.85180        20.62290       -10.64212
   H       -6.07589        26.62338       -10.57079
   H       -8.84051        24.61321       -14.20101
   H       -8.70530        26.67916       -15.44957
   H       -7.91645        29.00168       -15.66745
   H       -6.55676        30.02467       -13.88691
   H       -5.97223        28.73079       -11.87327
*
