# ORCA input file
# SCF done       -199.807151933904          0.000771196425
! CAM-B3LYP def2-SVP def2/J RIJCOSX Grid4 TightSCF
%maxcore 5000
%tddft
    Mode sTDDFT
    Ethresh 5.0
    maxcore 5000
end

%pal
  nprocs 6
  end
* xyz 0 1
   C       -6.67574         3.05544         3.61576
   C       -5.61163         3.18358         4.46984
   C       -5.50080         2.50727         5.70289
   N       -5.35248         1.97842         6.71071
   C       -4.50041         4.02171         4.24410
   N       -3.58024         4.69689         4.11595
   C       -7.87850         2.27123         3.86378
   C       -8.78694         2.47994         2.79656
   C      -10.02181         1.88068         2.74434
   C      -10.38057         1.03527         3.79941
   C       -9.46599         0.82936         4.86064
   C       -8.21640         1.43480         4.91149
   S      -10.10762        -0.25661         6.05455
   C      -11.57580        -0.41518         5.12812
   C      -11.58699         0.30666         3.98163
  Br      -12.95165        -1.52204         5.75715
   C       -8.18833         3.39767         1.81417
   O       -8.66139         3.72889         0.74424
   C       -6.85223         3.73785         2.34757
   C       -5.87651         4.40132         1.65813
   N       -6.03786         5.18078         0.56562
   C       -7.16436         5.86724         0.18490
   S       -8.25389         6.47936         1.38518
   C       -9.24752         7.13610         0.13437
   N      -10.42832         7.78962         0.51550
   O      -11.13245         8.24643        -0.36302
   O      -10.65683         7.84897         1.71066
   C       -8.75790         6.91047        -1.12204
   C       -7.53555         6.20669        -1.11606
   C       -6.86800         5.87255        -2.35231
   C       -5.54718         5.72428        -2.56417
   C       -4.96407         5.40270        -3.82785
   S       -3.21210         5.45724        -3.97912
   C       -3.31195         4.98729        -5.63230
   C       -4.64191         4.79684        -6.02223
   C       -5.57098         5.03344        -5.00689
   S       -4.79131         4.30283        -7.68491
   C       -3.05952         4.35474        -7.85092
   C       -2.18801         4.08746        -8.90994
   C       -0.87063         4.26748        -8.55325
   S       -0.69793         4.77986        -6.88138
   C       -2.41102         4.73950        -6.67380
   C        0.26542         4.07412        -9.39218
   C        1.53346         4.26232        -8.98591
   N        2.62373         4.03574        -9.79113
   C        3.90812         4.30700        -9.46114
   S        5.19583         3.35938       -10.13875
   C        6.33321         4.20842        -9.13408
   N        7.68480         3.88068        -9.26775
   O        8.48342         4.47223        -8.56473
   O        7.95967         3.01877       -10.08637
   C        5.74924         5.14968        -8.33026
   C        4.35946         5.24783        -8.52487
   C        3.52245         6.25784        -7.93210
   C        3.68662         6.74590        -6.68625
   C        2.85659         7.76062        -6.13361
   C        2.65386         7.98874        -4.81014
   C        2.99092         7.17620        -3.66066
   C        3.03846         5.80540        -3.63848
   C        3.29765         5.05105        -2.47555
   N        3.51724         4.40202        -1.55523
   C        2.71047         5.00413        -4.75028
   N        2.39879         4.32115        -5.61971
   C        3.01400         8.05740        -2.50057
   C        2.47540         9.31554        -2.87757
   C        2.13713         9.29391        -4.31609
   O        1.60319        10.15872        -4.96986
   C        2.33878        10.35224        -1.98682
   C        2.76209        10.14251        -0.66965
   C        3.30626         8.88601        -0.30703
   C        3.43601         7.83288        -1.20428
   S        3.77499         8.85094         1.36464
   C        3.23931        10.49943         1.55436
   C        2.73524        11.05003         0.42370
  Br        3.39873        11.33816         3.22349
   H      -10.69187         2.06207         1.91875
   H       -7.55449         1.24331         5.73940
   H      -12.41130         0.32515         3.29229
   H       -4.84348         4.28930         1.96322
   H       -5.22787         5.29717        -0.02881
   H       -9.25952         7.24754        -2.01110
   H       -7.53569         5.78790        -3.19777
   H       -4.82646         5.90075        -1.77606
   H       -6.63180         4.92564        -5.13065
   H       -2.50243         3.77557        -9.88862
   H        0.05468         3.75795       -10.40545
   H        1.75808         4.56930        -7.97408
   H        2.46901         3.48585       -10.62731
   H        6.31941         5.77679        -7.66942
   H        2.69248         6.61016        -8.53103
   H        4.45854         6.32983        -6.05246
   H        2.38728         8.45799        -6.81852
   H        1.92071        11.29757        -2.29529
   H        3.86232         6.89467        -0.88883
   H        2.36132        12.05563         0.36190
*
