# ORCA input file
# SCF done       -183.270458235743          0.000984297601
! CAM-B3LYP def2-SVP def2/J RIJCOSX Grid4 TightSCF
%maxcore 5000
%tddft
    Mode sTDDFT
    Ethresh 5.0
    maxcore 5000
end

%pal
  nprocs 6
  end
* xyz 0 1
   C      -17.64482        -8.23315         5.00535
   C      -16.88749        -8.94366         4.10348
   C      -16.64104       -10.32785         4.19915
   N      -16.40940       -11.45277         4.21841
   C      -16.28037        -8.41693         2.94591
   N      -15.77001        -8.07316         1.97526
   C      -18.31727        -8.80121         6.17238
   C      -19.06457        -7.77931         6.80707
   C      -19.81085        -7.99899         7.93819
   C      -19.81890        -9.29154         8.47387
   C      -19.06743       -10.30546         7.83571
   C      -18.31376       -10.08272         6.68896
   S      -19.21176       -11.82576         8.66549
   C      -20.26674       -11.08741         9.84132
   C      -20.50025        -9.77137         9.62609
  Br      -20.95978       -12.12365        11.24305
   C      -18.88528        -6.51275         6.06756
   O      -19.40058        -5.44506         6.33653
   C      -17.95514        -6.82550         4.96371
   C      -17.44622        -5.89539         4.08274
   C      -17.77974        -4.54262         4.07048
   C      -17.21447        -3.63762         3.19636
   C      -17.49684        -2.25214         3.12006
   C      -16.77801        -1.58754         2.17313
   C      -15.88623        -2.41635         1.45477
   S      -16.00337        -4.07150         2.01171
   C      -15.00072        -2.05237         0.46009
   C      -14.75474        -0.76148        -0.06740
   C      -13.79156        -0.73209        -1.02318
   C      -13.20474        -2.00024        -1.30377
   S      -13.96917        -3.23371        -0.30913
   C      -12.25215        -2.21229        -2.25659
   N      -11.60307        -3.37408        -2.55935
   C      -11.32181        -4.43412        -1.75116
   S      -11.18526        -4.26830        -0.03088
   C      -10.59426        -5.89558         0.06884
   N      -10.31974        -6.38725         1.35091
   O       -9.90315        -7.52367         1.45036
   O      -10.51849        -5.61613         2.27549
   C      -10.48229        -6.51271        -1.14606
   C      -10.90676        -5.69427        -2.21087
   C      -10.89463        -6.14823        -3.57451
   C      -11.64857        -5.65917        -4.58174
   C      -11.61067        -6.08644        -5.94560
   O      -12.57929        -5.61239        -6.77671
   C      -12.37575        -6.09742        -7.99251
   C      -11.24619        -6.87987        -8.01274
   N      -10.65882        -7.42223        -9.18956
   O       -9.45281        -7.53468        -9.20787
   O      -11.40656        -7.68703       -10.10460
   C      -10.73933        -6.88886        -6.67602
   N       -9.63995        -7.55696        -6.18962
   C       -9.14751        -8.73490        -6.60374
   O       -9.71308        -9.48399        -7.53407
   C       -8.93739       -10.62144        -7.67331
   C       -7.89240       -10.58506        -6.79947
   C       -8.00425        -9.35890        -6.07401
   C       -7.27066        -8.78298        -5.00804
   O       -7.56003        -7.72579        -4.45565
   C       -6.05001        -9.59566        -4.52607
   F       -6.42108       -10.80377        -4.06650
   F       -5.17840        -9.81942        -5.52334
   F       -5.38585        -8.98595        -3.54797
   C       -9.30177       -11.60377        -8.65807
   C      -10.32270       -11.48108        -9.50211
   H      -20.37098        -7.19902         8.39659
   H      -17.75551       -10.88911         6.24384
   H      -21.12502        -9.16180        10.25313
   H      -16.72300        -6.22486         3.34662
   H      -18.50884        -4.17725         4.77925
   H      -18.21985        -1.79503         3.77181
   H      -16.86091        -0.53367         1.97733
   H      -15.28977         0.10345         0.27964
   H      -13.46493         0.15698        -1.53234
   H      -11.99171        -1.37936        -2.89601
   H      -11.17942        -3.42489        -3.47906
   H      -10.13030        -7.52219        -1.25674
   H      -10.24049        -6.98942        -3.74771
   H      -12.41282        -4.91840        -4.39006
   H      -13.04651        -5.82297        -8.78276
   H       -9.09944        -7.15990        -5.41388
   H       -7.13333       -11.32974        -6.68227
   H       -8.66004       -12.47276        -8.67418
   H      -10.96014       -10.61352        -9.50259
   H      -10.54560       -12.24442       -10.22574
*
