# ORCA input file
# SCF done       -205.796438235828          0.000719657792
! CAM-B3LYP def2-SVP def2/J RIJCOSX Grid4 TightSCF
%maxcore 5000
%tddft
    Mode sTDDFT
    Ethresh 5.0
    maxcore 5000
end

%pal
  nprocs 6
  end
* xyz 0 1
   C       -9.77296         3.34689         6.28579
   C       -9.25579         2.62664         7.32848
   C       -9.95857         2.35927         8.52329
   N      -10.48606         2.10665         9.51059
   C       -7.93918         2.11803         7.39399
   N       -6.87496         1.71720         7.54692
   C      -11.06100         4.02596         6.27754
   C      -11.13206         4.84875         5.12711
   C      -12.21874         5.64319         4.85063
   C      -13.29007         5.61931         5.74872
   C      -13.21570         4.78395         6.89035
   C      -12.11521         3.98480         7.17215
   S      -14.65071         4.90033         7.86162
   C      -15.32103         6.05570         6.74048
   C      -14.51364         6.34011         5.69064
  Br      -17.02151         6.77675         7.06075
   C       -9.90076         4.69985         4.32525
   O       -9.64612         5.28232         3.29774
   C       -9.09408         3.66456         5.03706
   C       -8.00825         2.99629         4.55918
   C       -7.26326         3.23868         3.38060
   O       -7.38783         4.34586         2.60911
   C       -6.27552         2.43846         2.82162
   C       -5.55945         1.15736         2.95650
   O       -5.66758         0.27630         3.76357
   N       -4.68286         1.16336         1.87383
   C       -4.76076         2.28170         1.04766
   O       -4.09533         2.47272         0.06462
   C       -5.80703         3.10055         1.67150
   C       -6.52668         4.28667         1.57194
   C       -6.50638         5.33486         0.62104
   C       -5.67765         5.33523        -0.45420
   C       -5.66394         6.34932        -1.43608
   S       -6.70037         7.74265        -1.41171
   C       -6.08317         8.33607        -2.93603
   C       -5.07189         7.49130        -3.40202
   C       -4.84852         6.38936        -2.56825
   O       -3.96574         5.38121        -2.78259
   C       -3.03753         5.35000        -3.75097
   O       -2.37682         4.36625        -3.90774
   C       -2.79137         6.56016        -4.64741
   O       -1.82247         6.63034        -5.34519
   S       -3.99151         7.87119        -4.73354
   C       -6.63763         9.51820        -3.45973
   C       -6.75714         9.89984        -4.77385
   C       -7.27485        11.14645        -5.21631
   C       -7.39395        11.25736        -6.56720
   C       -6.99895        10.09546        -7.26868
   S       -6.44766         8.86857        -6.15405
   C       -7.02796         9.86082        -8.63173
   C       -7.47022        10.72500        -9.65885
   C       -7.39451        10.17621       -10.90383
   C       -6.89288         8.85257       -10.92203
   S       -6.49958         8.33566        -9.29984
   C       -6.71405         8.05409       -12.03286
   C       -6.23453         6.74797       -11.95843
   C       -5.96784         5.86499       -12.97852
   C       -5.87535         4.41898       -12.65458
   O       -5.81648         3.92724       -11.54979
   C       -5.93009         3.72175       -13.95509
   C       -5.96975         2.38174       -14.20810
   C       -6.05584         1.93825       -15.54714
   C       -6.10650         2.89902       -16.59796
   C       -6.20156         2.45150       -17.93065
   C       -6.24098         1.11346       -18.20696
   C       -6.18849         0.16440       -17.16698
   C       -6.09776         0.56680       -15.86388
   F       -6.23000        -1.14121       -17.46721
   F       -6.33113         0.69042       -19.47522
   C       -6.05631         4.28188       -16.30382
   C       -5.96124         4.68822       -15.00037
   C       -5.85615         6.02212       -14.40401
   C       -5.51103         7.16096       -15.09251
   C       -5.13149         8.37805       -14.49256
   N       -4.77496         9.38385       -14.06827
   C       -5.39219         7.22322       -16.49544
   N       -5.30285         7.34249       -17.63401
   H      -12.24042         6.26356         3.96844
   H      -12.10692         3.36305         8.05159
   H      -14.76933         7.02967         4.90708
   H       -7.64208         2.13607         5.10627
   H       -4.04011         0.40441         1.69504
   H       -7.20784         6.14078         0.78820
   H       -4.98184         4.51984        -0.60993
   H       -7.09883        10.17273        -2.73072
   H       -7.53069        11.92206        -4.51665
   H       -7.75580        12.13347        -7.07383
   H       -7.83090        11.71675        -9.45428
   H       -7.67632        10.67867       -11.81172
   H       -6.99495         8.47654       -12.98600
   H       -6.12553         6.32193       -10.96422
   H       -5.93592         1.66932       -13.39799
   H       -6.23915         3.16447       -18.73942
   H       -6.05837        -0.17180       -15.07862
   H       -6.10208         4.98401       -17.12070
*
