# ORCA input file
# SCF done       -185.187896335219          0.000845434640
! CAM-B3LYP def2-SVP def2/J RIJCOSX Grid4 TightSCF
%maxcore 5000
%tddft
    Mode sTDDFT
    Ethresh 5.0
    maxcore 5000
end

%pal
  nprocs 6
  end
* xyz 0 1
   C       -5.62509        -2.18521        -6.09806
   C       -6.36880        -3.23526        -5.62045
   C       -6.77222        -4.33227        -6.40833
   N       -7.12259        -5.25262        -6.99884
   C       -6.90228        -3.34063        -4.31826
   N       -7.41617        -3.48848        -3.30234
   C       -5.23183        -2.00037        -7.48932
   C       -4.67668        -0.70661        -7.63021
   C       -4.23445        -0.21406        -8.83354
   C       -4.33610        -1.04431        -9.95478
   C       -4.88135        -2.34112        -9.80317
   C       -5.33498        -2.83599        -8.58638
   S       -4.90901        -3.20268       -11.31224
   C       -4.20123        -1.82588       -12.11497
   C       -3.95370        -0.77526       -11.29753
  Br       -3.85344        -1.90505       -13.95683
   C       -4.66229        -0.02607        -6.31931
   O       -4.28194         1.10975        -6.12953
   C       -5.18288        -1.02209        -5.34843
   C       -5.15517        -0.95329        -3.98080
   C       -4.77244         0.12623        -3.15865
   O       -4.48962         1.36357        -3.63912
   C       -4.64241         0.17182        -1.77575
   C       -4.71760        -0.62757        -0.54600
   O       -4.96177        -1.79095        -0.36933
   N       -4.40610         0.29081         0.45595
   C       -4.12003         1.58333         0.01701
   O       -3.82587         2.50754         0.72935
   C       -4.26990         1.49122        -1.43747
   C       -4.18105         2.20036        -2.62611
   C       -3.83173         3.54813        -2.91594
   C       -3.70770         3.95511        -4.19906
   C       -3.43419         5.29550        -4.63782
   C       -3.83604         6.36716        -3.88589
   S       -3.65244         7.88594        -4.64947
   C       -2.97295         7.10135        -6.04552
   C       -2.87486         5.70819        -5.91055
   C       -2.26091         4.96096        -6.94988
   C       -1.95889         3.49929        -6.73981
   C       -0.94646         3.29938        -5.60936
   C       -1.87663         5.59914        -8.12425
   C       -1.31019         4.83566        -9.29352
   C        0.20643         4.66461        -9.18408
   C       -2.02223         6.99957        -8.26517
   C       -1.74305         7.86241        -9.38905
   C       -2.10958         9.15055        -9.14128
   S       -2.74282         9.42803        -7.56552
   C       -2.57148         7.73826        -7.20699
   C       -1.13615         7.52019       -10.66454
   C       -1.68773         7.86734       -11.84797
   C       -1.09958         7.60363       -13.10697
   C       -1.73500         7.79456       -14.30230
   C       -1.21490         7.57156       -15.60328
   C       -2.09751         7.80996       -16.61115
   C       -3.37448         8.22464       -16.17172
   S       -3.40589         8.33641       -14.42239
   C       -4.49352         8.48399       -16.93614
   C       -4.63179         8.43769       -18.33983
   C       -5.89017         8.71062       -18.78523
   C       -6.83403         8.98536       -17.76686
   S       -6.02665         8.90288       -16.20119
   C       -8.16706         9.25168       -17.96359
   C       -9.17006         9.49935       -17.01684
   N       -9.00923         9.54523       -15.64401
   C      -10.17325         9.79191       -15.00006
   C      -11.16758         9.92011       -15.95830
   C      -10.53886         9.73780       -17.21968
   N      -11.48259         9.85349       -18.18652
   C      -12.68952        10.10158       -17.57375
   C      -12.54682        10.15120       -16.21968
   H       -3.82425         0.78098        -8.90894
   H       -5.74159        -3.83126        -8.52383
   H       -3.52117         0.15199       -11.62651
   H       -5.44070        -1.82934        -3.41281
   H       -4.38100         0.03388         1.43244
   H       -3.64424         4.18646        -2.06656
   H       -3.88093         3.21142        -4.96157
   H       -4.30552         6.32815        -2.92245
   H       -1.53012         3.06695        -7.63983
   H       -2.86720         2.93789        -6.52889
   H       -0.02030         3.82536        -5.83465
   H       -0.72528         2.24048        -5.49603
   H       -1.32515         3.67094        -4.66145
   H       -1.54898         5.38103       -10.20789
   H       -1.78532         3.85771        -9.38010
   H        0.69029         5.62887        -9.04398
   H        0.60181         4.20287       -10.08679
   H        0.46599         4.03738        -8.33511
   H       -1.99490         9.98357        -9.80743
   H       -0.17980         7.01621       -10.64918
   H       -2.66303         8.33868       -11.85586
   H       -0.09042         7.21377       -13.13053
   H       -0.20168         7.23951       -15.74706
   H       -1.87085         7.68846       -17.65547
   H       -3.80128         8.20311       -18.98094
   H       -6.17563         8.71601       -19.82274
   H       -8.49679         9.26042       -18.99459
   H       -8.12261         9.40715       -15.18670
   H      -10.21701         9.85813       -13.93150
   H      -11.34391         9.76916       -19.17862
   H      -13.57659        10.22673       -18.16429
   H      -13.32186        10.32838       -15.50228
*
