# ORCA input file
# SCF done       -186.213084014140          0.000681219796
! CAM-B3LYP def2-SVP def2/J RIJCOSX Grid4 TightSCF
%maxcore 5000
%tddft
    Mode sTDDFT
    Ethresh 5.0
    maxcore 5000
end

%pal
  nprocs 6
  end
* xyz 0 1
   C       -5.00241       -12.11395         0.10843
   C       -3.92842       -11.94925         0.93911
   F       -3.37588       -13.01010         1.54348
   C       -3.39105       -10.66864         1.17022
   F       -2.33783       -10.53416         1.98956
   C       -3.93485        -9.56834         0.56706
   C       -5.04121        -9.70579        -0.29197
   C       -5.58641       -11.00081        -0.52684
   C       -6.70016       -11.16270        -1.38505
   C       -7.25235       -10.06397        -1.98675
   C       -6.69970        -8.77241        -1.74536
   C       -5.62489        -8.58507        -0.92525
   C       -7.47388        -7.78081        -2.50047
   O       -7.29004        -6.56409        -2.53895
   C       -8.51852        -8.52248        -3.20467
   C       -8.38559        -9.92585        -2.90015
   C       -9.16365       -10.95442        -3.37195
   C      -10.24322       -10.78239        -4.25996
   N      -11.12896       -10.68733        -4.98486
   C       -8.97772       -12.30763        -3.02912
   N       -8.87450       -13.42501        -2.78435
   C       -9.44025        -7.88049        -4.00372
   N       -9.37657        -6.55162        -4.14454
   C      -10.18474        -5.74799        -4.87325
   S      -11.52067        -6.37609        -5.78981
   C      -11.88876        -4.76108        -6.30778
   N      -12.98284        -4.57644        -7.15831
   O      -13.23052        -3.43869        -7.52084
   O      -13.61038        -5.57312        -7.47579
   C      -11.03819        -3.81200        -5.80604
   C      -10.04239        -4.35428        -4.97255
   C       -9.00636        -3.61525        -4.30449
   C       -8.81888        -2.28324        -4.38644
   C       -7.75156        -1.62937        -3.69024
   C       -7.46436        -0.31707        -3.68824
   C       -8.19666         0.74126        -4.44672
   C       -6.25982         0.18121        -2.92481
   N       -5.16868         0.45158        -3.83585
   C       -4.91820         1.67596        -4.34966
   C       -4.17965         1.90372        -5.46838
   C       -3.84436         3.19139        -5.92406
   C       -3.12746         3.45482        -7.06034
   C       -2.74537         4.72588        -7.55657
   C       -2.03389         4.68835        -8.71440
   C       -1.81350         3.38186        -9.21461
   S       -2.53788         2.19721        -8.14703
   C       -1.14906         3.02024       -10.36449
   C       -0.50492         3.87674       -11.29532
   C        0.05945         3.24050       -12.34848
   C       -0.10171         1.81909       -12.33870
   S       -0.99523         1.35193       -10.87878
   C        0.29725         0.89194       -13.23125
   C        1.03695         1.19211       -14.49179
   C        1.87251         0.04549       -15.03247
   C        2.72142         0.70301       -16.16973
   C        2.68074         2.23938       -16.24718
   C        3.80203         2.92526       -16.03693
   O        1.60395         2.99067       -16.68885
   C        0.25625         2.87602       -16.17770
   C        0.13672         1.43487       -15.74462
   C       -1.01680         0.50614       -15.55071
   C       -0.58389        -0.74286       -15.40438
   C        0.89515        -1.09419       -15.49729
   C        1.17519        -2.38807       -14.73066
   C       -0.70045         3.30257       -17.29144
   C       -0.66183         2.39322       -18.51774
   C       -1.51904         2.95162       -19.64648
   H       -5.40163       -13.10234        -0.05760
   H       -3.51124        -8.59402         0.75457
   H       -7.08865       -12.15577        -1.54203
   H       -5.22480        -7.59633        -0.75925
   H      -10.22643        -8.40499        -4.52997
   H       -8.59785        -6.12230        -3.61000
   H      -11.15002        -2.77057        -6.04337
   H       -8.32202        -4.18370        -3.68840
   H       -9.48120        -1.67992        -4.98657
   H       -7.12598        -2.28636        -3.09687
   H       -8.89305         0.32641        -5.16697
   H       -7.48751         1.37669        -4.97884
   H       -8.75297         1.37546        -3.75520
   H       -5.92957        -0.56806        -2.19912
   H       -6.49600         1.10614        -2.39314
   H       -4.87557        -0.33631        -4.39778
   H       -5.30101         2.50584        -3.76983
   H       -3.81823         1.06207        -6.04454
   H       -4.17362         4.04019        -5.33842
   H       -3.00978         5.62901        -7.03444
   H       -1.66536         5.55913        -9.22627
   H       -0.47761         4.94228       -11.15010
   H        0.59772         3.73974       -13.13382
   H        0.07319        -0.14116       -13.01741
   H        1.67251         2.06096       -14.30416
   H        2.54641        -0.35947       -14.27406
   H        2.44495         0.30196       -17.14895
   H        3.76949         0.44387       -16.01785
   H        4.73352         2.44075       -15.81205
   H        3.81427         3.99702       -16.12454
   H        0.14944         3.58068       -15.33869
   H        0.62893         0.96266       -16.59720
   H       -2.04703         0.81337       -15.49778
   H       -1.25669        -1.56701       -15.22333
   H        1.09794        -1.30198       -16.55765
   H        0.98483        -2.25757       -13.66766
   H        2.21239        -2.68971       -14.85905
   H        0.53982        -3.19202       -15.09581
   H       -1.71011         3.32893       -16.87667
   H       -0.42903         4.31583       -17.59383
   H       -1.02409         1.39790       -18.25183
   H        0.37220         2.30579       -18.85663
   H       -2.55468         3.04810       -19.32728
   H       -1.48681         2.29334       -20.51141
   H       -1.16115         3.93315       -19.94899
*
