# ORCA input file
# SCF done       -213.736607341299          0.000855549458
! CAM-B3LYP def2-SVP def2/J RIJCOSX Grid4 TightSCF
%maxcore 5000
%tddft
    Mode sTDDFT
    Ethresh 5.0
    maxcore 5000
end

%pal
  nprocs 6
  end
* xyz 0 1
   C       -0.13051         0.87277         6.28479
   C        0.33869        -0.00937         7.40986
   O        0.28454        -1.21498         7.42221
   C        0.89415         0.91994         8.39999
   C        0.61470         2.23627         8.01703
   C       -0.18022         2.23018         6.79247
   C       -0.98529         3.23825         6.34630
   C       -1.93625         3.08651         5.31166
   N       -2.80159         3.00001         4.56304
   C       -1.05707         4.51206         6.95095
   N       -1.14879         5.56076         7.40671
   C        1.07241         3.31260         8.78613
   C        1.78897         3.04921         9.92571
   C        2.07489         1.73212        10.34878
   C        1.62283         0.62650         9.57001
   C        1.91856        -0.68635         9.98765
   C        2.63044        -0.89586        11.13787
   C        3.07440         0.18809        11.91117
   C        2.80419         1.47387        11.52667
   C       -0.25242         0.34127         5.04384
   C       -0.33597         1.04958         3.81531
   N       -0.12885         2.35465         3.73913
   C       -0.26369         2.68155         2.44060
   C       -0.56268         1.49949         1.61988
   C       -0.71201         1.88323         0.20758
   O       -0.94378         1.17301        -0.74924
   C       -0.49809         3.34039         0.24013
   C       -0.21872         3.78501         1.62546
   N       -0.00188         5.12049         1.66498
   C       -0.12972         5.52638         0.42646
   C       -0.43752         4.46491        -0.51613
   C       -0.60147         0.43457         2.48871
   C       -0.82055        -0.94663         2.24783
   C       -1.05745        -1.43284         1.00059
   C       -1.26433        -2.78918         0.66257
   S       -2.12503        -3.15066        -0.78373
   C       -2.10001        -4.86182        -0.52229
   C       -1.37436        -5.15290         0.65514
   C       -0.88918        -3.98202         1.31625
   C       -0.04550        -4.11995         2.42734
   C        0.22822        -5.37104         2.92162
   N        1.22182        -5.48076         3.96994
   O        1.37978        -4.51296         4.67669
   O        1.85603        -6.50801         4.01688
   C       -0.33940        -6.52294         2.32771
   N       -0.20255        -7.83317         2.95591
   O       -0.47614        -7.87876         4.13066
   O        0.09946        -8.75473         2.24588
   C       -1.10692        -6.42338         1.19725
   C       -2.75619        -5.79584        -1.35257
   N       -2.69768        -7.09364        -1.05317
   C       -3.46727        -7.72352        -1.95092
   C       -4.08213        -6.77310        -2.88777
   C       -4.92238        -7.49212        -3.86741
   O       -5.59004        -7.03376        -4.76807
   C       -4.74914        -8.89874        -3.47100
   C       -3.86163        -8.99636        -2.29123
   N       -3.69435       -10.28679        -1.92308
   C       -4.39851       -10.98314        -2.78314
   C       -5.07850       -10.17905        -3.78056
   C       -3.61396        -5.53211        -2.53968
   C       -3.89607        -4.26493        -3.13192
   C       -4.92370        -4.06696        -3.98890
   C       -5.25764        -2.82934        -4.60913
   C       -5.04917        -1.54490        -4.22381
   C       -5.22671        -0.46859        -5.25166
   O       -5.76887        -0.60436        -6.32467
   C       -4.57223         0.72104        -4.68787
   C       -4.15502         0.44487        -3.38468
   C       -4.57842        -0.90159        -3.01270
   C       -4.70049        -1.35238        -1.72537
   C       -5.31357        -2.56777        -1.35856
   N       -5.80110        -3.53652        -0.98274
   C       -4.25243        -0.65736        -0.58175
   N       -3.87747        -0.19519         0.40056
   C       -3.47037         1.41050        -2.63651
   C       -3.23523         2.63553        -3.20303
   C       -3.66150         2.95488        -4.51087
   C       -4.34455         1.97433        -5.28844
   C       -4.75998         2.29108        -6.59776
   C       -4.51294         3.53294        -7.11496
   C       -3.84441         4.50418        -6.35253
   C       -3.42747         4.22275        -5.08027
   H        0.87682         4.32855         8.48441
   H        2.15199         3.86862        10.52904
   H        1.57485        -1.51278         9.38596
   H        2.85585        -1.90163        11.45843
   H        3.63399        -0.00084        12.81503
   H        3.14492         2.30926        12.12069
   H       -0.19616        -0.74058         4.99813
   H       -0.00412         6.56622         0.17955
   H       -0.56656         4.59316        -1.57286
   H       -0.83355        -1.60269         3.10521
   H       -1.15731        -0.72582         0.18584
   H        0.44353        -3.26888         2.87399
   H       -1.51730        -7.29823         0.71439
   H       -4.43892       -12.05587        -2.70878
   H       -5.69840       -10.55644        -4.56938
   H       -3.23173        -3.44420        -2.89849
   H       -5.51845        -4.91808        -4.29562
   H       -5.73650        -2.91899        -5.58147
   H       -3.10792         1.19190        -1.64665
   H       -2.70732         3.38799        -2.63601
   H       -5.27306         1.53746        -7.17397
   H       -4.83238         3.77601        -8.11717
   H       -3.66118         5.47858        -6.78058
   H       -2.91442         4.97010        -4.49225
*
