# ORCA input file
# SCF done       -176.704915065312          0.000507761395
! CAM-B3LYP def2-SVP def2/J RIJCOSX Grid4 TightSCF
%maxcore 5000
%tddft
    Mode sTDDFT
    Ethresh 5.0
    maxcore 5000
end

%pal
  nprocs 6
  end
* xyz 0 1
   C       -7.21064        -5.13151         5.10737
   C       -6.82474        -5.06690         3.84623
   C       -7.84192        -5.68822         2.92730
   C       -8.81598        -6.42118         3.88174
   C       -8.54042        -5.80101         5.26683
   C      -10.22221        -6.21017         3.29401
   C      -10.12622        -4.88384         2.51410
   C      -10.76213        -3.88841         3.45136
   C      -11.41448        -4.49206         4.43015
   C      -11.33817        -5.98799         4.32562
   C       -8.67414        -4.65367         2.21962
   C       -8.25448        -3.61738         1.47733
   C       -6.92357        -3.28860         1.07722
   C       -5.74915        -4.15716         0.92463
   N       -4.68580        -3.55535         0.47357
   C       -5.05301        -2.25128         0.29192
   C       -6.46178        -2.06220         0.65960
   C       -6.85645        -0.69913         0.42498
   S       -8.37217        -0.07315         0.58032
   C       -5.65884        -0.05457        -0.05492
   C       -4.57378        -1.04867        -0.15493
   N       -3.44631        -0.48068        -0.67284
   C       -3.76663         0.75634        -0.91976
   C       -5.13867         1.11780        -0.55535
   C       -5.67804         2.44821        -0.65966
   C       -6.58487         2.91155         0.27239
   C       -7.02212         4.24995         0.22789
   C       -7.83776         5.00084         1.07614
   C       -8.52642         4.65151         2.35190
   C       -9.86741         3.92697         2.08391
   N       -9.63614         2.63565         1.48308
   C       -7.66346         3.82839         3.31963
   N       -6.42441         4.53694         3.59726
   C       -7.94140         6.31745         0.48852
   C       -8.61934         7.41237         0.88358
   C       -8.61609         8.66254         0.08383
   C       -7.72634         8.63436        -1.11965
   C       -7.05188         7.53232        -1.50039
   C       -7.13372         6.34597        -0.73457
   C       -6.56915         5.09227        -0.87478
   C       -5.67513         4.57473        -1.83811
   C       -5.22279         3.30112        -1.71499
   C      -10.01166         8.97085        -0.41644
   C      -10.84748         8.02591        -0.86249
   C      -12.16926         8.26864        -1.35105
   C      -12.99672         7.20949        -1.93138
   N      -14.18402         7.58843        -2.30631
   C      -14.24642         8.91560        -2.00045
   C      -12.98046         9.38229        -1.40655
   C      -13.09963        10.78152        -1.06827
   S      -11.96270        11.74013        -0.35853
   C      -14.43648        11.14679        -1.45913
   C      -15.11595         9.97155        -2.03294
   N      -16.39542        10.27545        -2.39361
   C      -16.55492        11.52444        -2.06675
   C      -15.37589        12.15842        -1.46550
   C      -15.34125        13.51618        -1.03219
   C      -14.25018        14.22654        -0.66637
   C      -14.66569        15.62719        -0.39022
   C      -16.13012        15.44083         0.02302
   C      -16.60408        14.36984        -0.95220
   C      -16.61717        16.87471         0.17467
   C      -15.37566        17.52676         0.86634
   C      -15.80702        17.62874         2.30145
   C      -17.09013        17.35588         2.46175
   C      -17.77639        17.03282         1.16771
   C      -14.18388        16.60749         0.63025
   C      -13.00617        16.66868         1.21961
   H       -6.67766        -4.73590         5.95496
   H       -5.92746        -4.60499         3.47400
   H       -7.38552        -6.36784         2.20128
   H       -8.58047        -7.48706         3.92463
   H       -8.52798        -6.55193         6.05828
   H       -9.28406        -5.04562         5.52992
   H      -10.45531        -7.04537         2.63041
   H      -10.69553        -4.89631         1.57649
   H      -10.67634        -2.82956         3.28428
   H      -11.97257        -4.00845         5.21398
   H      -12.28961        -6.38000         3.95471
   H      -11.13446        -6.47306         5.28016
   H       -8.99820        -2.90283         1.14130
   H       -5.72212        -5.21506         1.11417
   H       -3.03277         1.43579        -1.31812
   H       -6.93821         2.24857         1.04494
   H       -8.76382         5.59070         2.86106
   H      -10.50206         4.59557         1.47477
   H      -10.36760         3.76960         3.04332
   H       -9.32873         2.72407         0.52198
   H      -10.46451         2.05563         1.50165
   H       -7.52641         2.81719         2.91604
   H       -8.20626         3.73422         4.26473
   H       -5.87422         4.62152         2.74821
   H       -5.87189         4.02531         4.27615
   H       -9.22848         7.42163         1.77705
   H       -8.31534         9.49229         0.73789
   H       -7.68541         9.54500        -1.69697
   H       -6.43497         7.54374        -2.38731
   H       -5.35401         5.20210        -2.65653
   H       -4.53613         2.89396        -2.44179
   H      -10.30094        10.01117        -0.43810
   H      -10.53572         6.98768        -0.86736
   H      -12.67860         6.18912        -2.06315
   H      -17.49067        12.01958        -2.25951
   H      -13.23656        13.87200        -0.65468
   H      -14.64421        16.15623        -1.36082
   H      -16.12712        14.99301         1.02527
   H      -16.83362        14.79403        -1.93447
   H      -17.46853        13.81025        -0.59824
   H      -16.83617        17.32142        -0.79698
   H      -15.15293        18.52599         0.47451
   H      -15.11106        17.90079         3.07505
   H      -17.63015        17.37096         3.39307
   H      -18.44234        17.85086         0.88012
   H      -18.37952        16.12563         1.23776
   H      -12.77307        17.42304         1.95175
   H      -12.22595        15.96332         0.99079
*
