# ORCA input file
# SCF done       -201.409888838627          0.000308493853
! CAM-B3LYP def2-SVP def2/J RIJCOSX Grid4 TightSCF
%maxcore 5000
%tddft
    Mode sTDDFT
    Ethresh 5.0
    maxcore 5000
end

%pal
  nprocs 6
  end
* xyz 0 1
   C       10.93789        -0.14056         8.43523
   C       10.72187        -0.48092         9.74199
   F       11.74304        -0.44014        10.61369
   C        9.46379        -0.87758        10.21786
   C        8.41233        -0.92736         9.34617
   C        8.57924        -0.59004         7.98656
   C        9.86671        -0.18728         7.52222
   C       10.05945         0.15568         6.16361
   C        9.00112         0.08975         5.29848
   C        7.71956        -0.32969         5.76482
   C        7.50367        -0.65520         7.07468
   C        6.77777        -0.37589         4.63588
   O        5.59589        -0.62271         4.64429
   C        7.62485        -0.12789         3.42331
   C        8.90765         0.38193         3.87109
   C        9.76018         1.16722         3.15075
   C       10.94971         1.71136         3.68053
   N       11.92068         2.17201         4.08122
   C        9.48059         1.62628         1.84335
   N        9.25197         2.12493         0.83540
   C        7.19189        -0.56757         2.21565
   C        7.98418        -0.82210         1.06223
   N        9.30565        -0.74899         1.08338
   C        9.72162        -1.18436        -0.12408
   C        8.59000        -1.59556        -0.96047
   C        9.06615        -2.07418        -2.26500
   O        8.42551        -2.55970        -3.17452
   C       10.52417        -1.85255        -2.17999
   C       10.88245        -1.33175        -0.84229
   N       12.21868        -1.12143        -0.75136
   C       12.69677        -1.44935        -1.92475
   C       11.68996        -1.90721        -2.86937
   C        7.45721        -1.33571        -0.22403
   C        6.08506        -1.48689        -0.55794
   C        5.68361        -2.19337        -1.64326
   C        4.33807        -2.37709        -2.04999
   N        4.00532        -3.32357        -2.97204
   C        2.66440        -3.29430        -3.21218
   C        2.11763        -2.27471        -2.42203
   C        3.15287        -1.72032        -1.68901
   C        2.02910        -4.21719        -4.02600
   C        1.47217        -5.07089        -4.69268
   C        0.85425        -6.08890        -5.39320
   C        1.32177        -7.36716        -5.37950
   C        0.65828        -8.41942        -6.05274
   N       -0.31482        -8.19952        -6.93223
   C       -0.71396        -9.40914        -7.35263
   C        0.01927       -10.48876        -6.66805
   C       -0.45033       -11.80610        -7.13516
   O       -0.12234       -12.90757        -6.74168
   C       -1.43471       -11.45089        -8.16510
   C       -1.58210        -9.98256        -8.25455
   N       -2.49100        -9.65027        -9.19864
   C       -2.90007       -10.79431        -9.69885
   C       -2.27961       -11.95628        -9.10279
   C        0.92154        -9.86495        -5.84193
   C        1.87461       -10.41806        -4.94306
   C        1.96648       -11.75181        -4.71921
   C        2.87694       -12.33620        -3.80590
   C        3.08455       -13.67206        -3.65535
   C        3.69567       -14.21488        -2.41179
   O        4.32830       -13.59864        -1.58474
   C        3.29430       -15.63445        -2.38122
   C        3.47579       -16.55409        -1.38837
   C        2.96325       -17.85954        -1.55545
   C        2.26565       -18.18775        -2.75480
   C        1.74711       -19.48831        -2.90855
   C        1.92446       -20.40433        -1.90939
   C        2.60867       -20.10156        -0.72402
   C        3.11852       -18.84422        -0.55797
   F        1.42891       -21.64673        -2.05389
   C        2.10066       -17.21822        -3.77154
   C        2.61141       -15.96173        -3.58973
   C        2.61638       -14.78621        -4.45689
   C        2.42873       -14.78482        -5.81207
   C        2.75170       -13.69214        -6.64782
   N        3.08533       -12.86308        -7.36718
   C        2.02107       -15.92040        -6.54311
   N        1.69051       -16.82231        -7.17060
   H       11.91910         0.16230         8.10489
   H        9.35424        -1.13496        11.25941
   H        7.43446        -1.23014         9.68893
   H       11.04447         0.44685         5.83496
   H        6.52526        -0.96699         7.40836
   H        6.15215        -0.87177         2.17280
   H       13.75199        -1.37571        -2.12238
   H       11.87831        -2.21407        -3.87913
   H        5.35338        -1.02883         0.09197
   H        6.43509        -2.68062        -2.25214
   H        4.66250        -3.94085        -3.42262
   H        1.08085        -2.00498        -2.39061
   H        3.07287        -0.91626        -0.98520
   H       -0.05538        -5.86734        -5.93542
   H        2.20452        -7.60589        -4.80319
   H       -3.63878       -10.80962       -10.48136
   H       -2.47226       -12.97589        -9.37181
   H        2.55237        -9.74163        -4.43915
   H        1.28137       -12.40897        -5.23603
   H        3.38987       -11.68761        -3.10356
   H        4.00079       -16.28727        -0.48329
   H        1.21740       -19.75758        -3.80890
   H        2.71712       -20.86548         0.02947
   H        3.64904       -18.58662         0.34641
   H        1.56179       -17.48883        -4.66578
*
