# ORCA input file
# SCF done       -173.767525586376          0.000836547556
! CAM-B3LYP def2-SVP def2/J RIJCOSX Grid4 TightSCF
%maxcore 5000
%tddft
    Mode sTDDFT
    Ethresh 5.0
    maxcore 5000
end

%pal
  nprocs 6
  end
* xyz 0 1
   C        4.70921        -4.69810        -5.28514
   N        3.44822        -4.38252        -5.26537
   N        2.97867        -3.28362        -5.82188
   C        3.72493        -2.41512        -6.47021
   C        5.13167        -2.66066        -6.57060
   C        5.63830        -3.85205        -5.93574
   N        6.94198        -3.88191        -6.13998
   O        7.21811        -2.79178        -6.84896
   N        6.15759        -2.04664        -7.12081
   C        3.12750        -1.23987        -7.04990
   N        3.89597        -0.34469        -7.64014
   C        3.06312         0.62929        -8.06940
   C        1.67091         0.32693        -7.72794
   C        0.78582         1.40350        -8.19554
   O       -0.41931         1.50151        -8.08639
   C        1.72690         2.34792        -8.83050
   C        3.10892         1.83574        -8.73041
   N        3.98174         2.69614        -9.30872
   C        3.24547         3.68567        -9.75080
   C        1.82606         3.53236        -9.48500
   C        1.69122        -0.88197        -7.06576
   C        0.64325        -1.65919        -6.50108
   C       -0.65644        -1.28072        -6.55678
   C       -1.77030        -1.98983        -5.99437
   C       -3.03624        -1.44395        -6.14323
   C       -4.15253        -2.08040        -5.58458
   C       -5.50369        -1.72535        -5.57697
   C       -6.09207        -0.51845        -6.22026
   C       -7.08932        -0.90766        -7.33269
   N       -7.30912         0.22312        -8.21091
   C       -6.72676         0.40974        -5.16976
   N       -5.81696         0.55394        -4.04546
   C       -6.19762        -2.74261        -4.83198
   C       -7.49124        -2.88013        -4.48004
   C       -7.96919        -4.05350        -3.69517
   C       -6.90046        -5.00048        -3.26332
   C       -5.60641        -4.84598        -3.61321
   C       -5.20589        -3.73819        -4.39006
   C       -3.96878        -3.32279        -4.85559
   C       -2.67424        -3.87115        -4.73058
   C       -1.61396        -3.22149        -5.28147
   C       -8.92955        -4.79843        -4.58387
   C      -10.26096        -4.79363        -4.42335
   C      -11.13310        -5.50577        -5.30249
   N      -10.67281        -6.32249        -6.23986
   C      -11.75681        -6.82222        -6.86011
   C      -12.99962        -6.28047        -6.28883
   C      -14.17529        -6.84384        -6.97998
   O      -15.34776        -6.61836        -6.77564
   C      -13.56308        -7.74036        -7.97409
   C      -12.08906        -7.69660        -7.86993
   N      -11.52041        -8.51425        -8.78522
   C      -12.52664        -9.05216        -9.43612
   C      -13.82790        -8.61272        -8.98197
   C      -12.61211        -5.42681        -5.28471
   C      -13.38112        -4.60314        -4.41527
   C      -14.72943        -4.51306        -4.44148
   C      -15.43147        -3.63714        -3.54574
   N      -14.76213        -2.91269        -2.67062
   N      -15.33707        -2.09002        -1.81584
   C      -16.62295        -1.90637        -1.76238
   C      -17.47515        -2.60649        -2.65067
   C      -16.85598        -3.51556        -3.58042
   N      -17.81713        -4.05166        -4.30344
   O      -18.94803        -3.51966        -3.86001
   N      -18.77632        -2.64891        -2.86935
   H        5.00197        -5.61498        -4.79840
   H        3.70063         4.51760       -10.25959
   H        1.06104         4.22965        -9.76438
   H        0.95585        -2.57262        -6.01917
   H       -0.90277        -0.35422        -7.06039
   H       -3.15090        -0.51952        -6.69024
   H       -5.28739         0.03667        -6.71107
   H       -8.01271        -1.30369        -6.88003
   H       -6.64072        -1.70725        -7.92873
   H       -7.86617         0.93750        -7.75680
   H       -7.78723        -0.05984        -9.05739
   H       -7.65148        -0.02799        -4.78402
   H       -6.98014         1.36804        -5.65283
   H       -4.92851         0.93069        -4.35914
   H       -6.19961         1.19609        -3.36018
   H       -8.25159        -2.17221        -4.77280
   H       -8.52168        -3.68981        -2.81825
   H       -7.22661        -5.84532        -2.67694
   H       -4.86058        -5.55687        -3.28926
   H       -2.53617        -4.79911        -4.19592
   H       -0.62429        -3.63749        -5.18112
   H       -8.49687        -5.35365        -5.40295
   H      -10.71729        -4.23416        -3.61810
   H      -12.34407        -9.75330       -10.23193
   H      -14.76989        -8.93242        -9.38132
   H      -12.85567        -3.99576        -3.69091
   H      -15.32983        -5.08629        -5.13436
   H      -16.99807        -1.21218        -1.02744
*
