# ORCA input file
# SCF done       -205.437200084965          0.000746951878
! CAM-B3LYP def2-SVP def2/J RIJCOSX Grid4 TightSCF
%maxcore 5000
%tddft
    Mode sTDDFT
    Ethresh 5.0
    maxcore 5000
end

%pal
  nprocs 6
  end
* xyz 0 1
   C       -7.88899         3.04453         1.26983
   C       -8.45135         3.20330         2.52663
   C       -8.23979         2.26609         3.52969
   C       -7.45172         1.14831         3.30691
   C       -6.87560         0.98052         2.05634
   C       -7.10110         1.92821         1.02972
   C       -6.42675         1.48963        -0.17877
   C       -6.31483         2.18142        -1.34782
   C       -6.82871         3.48489        -1.54302
   N       -7.21443         4.54177        -1.76452
   C       -5.67467         1.72579        -2.52430
   N       -5.20305         1.42746        -3.52667
   C       -5.89538         0.14749         0.10386
   C       -5.99564        -0.05802         1.55403
   C       -5.30428        -0.95512         2.31524
   C       -4.28479        -1.81585         1.86293
   N       -3.42365        -2.52443         1.58877
   C       -5.46771        -1.09488         3.71401
   N       -5.55413        -1.27360         4.84317
   C       -5.56592        -0.73915        -0.85160
   C       -5.23142        -2.14857        -0.71871
   C       -6.08888        -3.12627        -0.20174
   C       -7.43518        -2.84679         0.34419
   O       -7.97261        -1.78269         0.45659
   S       -8.18901        -4.37946         0.86023
   C       -6.77469        -5.37446         0.34514
   O       -6.76644        -6.56348         0.40729
   C       -5.72376        -4.47197        -0.16816
   C       -4.48153        -4.92960        -0.62582
   C       -3.62931        -3.95009        -1.15483
   C       -4.00123        -2.61465        -1.20146
   C       -2.94798        -1.68697        -1.66078
   O       -3.01106        -0.49407        -1.68871
   S       -1.50955        -2.63603        -2.12239
   C       -2.25674        -4.20477        -1.65032
   O       -1.68423        -5.24591        -1.74713
   C       -4.06451        -6.32491        -0.48069
   C       -3.78336        -7.13482        -1.57082
   C       -3.34926        -8.44356        -1.36211
   C       -3.21749        -8.87103        -0.03598
   N       -3.47357        -8.09668         0.99746
   C       -3.88224        -6.86498         0.79842
   C       -3.01584        -9.28166        -2.49724
   C       -3.05152       -10.61942        -2.48211
   C       -2.62393       -11.46588        -3.57539
   C       -1.81601       -12.59036        -3.31521
   C       -1.39628       -13.02846        -1.96500
   O       -1.60524       -12.49850        -0.91695
   S       -0.45490       -14.55607        -2.11013
   C       -0.58556       -14.59209        -3.88672
   O       -0.16124       -15.46535        -4.58387
   C       -1.32906       -13.39566        -4.33093
   C       -1.60397       -13.16217        -5.68388
   C       -2.44972       -12.07982        -5.94727
   C       -2.95660       -11.26770        -4.92882
   C       -3.94427       -10.27538        -5.40473
   O       -4.61590        -9.51475        -4.78057
   S       -4.07598       -10.38903        -7.20266
   C       -2.88785       -11.71031        -7.31046
   O       -2.54309       -12.19770        -8.34841
   C       -0.96407       -13.99330        -6.69250
   C       -1.51815       -14.76201        -7.64599
   C       -0.75185       -15.38093        -8.73816
   C        0.58755       -15.63232        -8.75319
   C        1.49942       -15.32772        -7.71517
   N        2.31009       -15.09102        -6.93868
   C        1.25843       -16.25784        -9.82999
   N        1.85990       -16.76368       -10.66500
   C       -1.70333       -15.66645        -9.79689
   C       -3.01079       -15.38597        -9.33318
   C       -4.10297       -15.53857       -10.17439
   C       -3.88564       -15.97997       -11.46986
   C       -2.60417       -16.26746       -11.92202
   C       -1.50279       -16.11269       -11.09498
   C       -2.93918       -14.97727        -7.94282
   C       -3.98296       -14.93352        -7.06476
   C       -5.33409       -15.13099        -7.43436
   N       -6.44951       -15.25868        -7.66704
   C       -3.87406       -14.76555        -5.67013
   N       -3.86318       -14.67042        -4.52596
   H       -8.07300         3.77514         0.49952
   H       -9.06852         4.06623         2.72407
   H       -8.69693         2.40644         4.49703
   H       -7.30692         0.42386         4.09122
   H       -5.55452        -0.39589        -1.87906
   H       -3.92590        -6.76892        -2.57715
   H       -2.86036        -9.86351         0.20133
   H       -4.05223        -6.26606         1.68261
   H       -2.69853        -8.75020        -3.38443
   H       -3.33004       -11.13937        -1.57649
   H        0.11764       -13.94943        -6.64626
   H       -5.10162       -15.30848        -9.84139
   H       -4.72618       -16.09870       -12.13610
   H       -2.46011       -16.61061       -12.93498
   H       -0.51423       -16.32927       -11.46506
*
