# ORCA input file
# SCF done       -228.291925802203          0.000562811364
! CAM-B3LYP def2-SVP def2/J RIJCOSX Grid4 TightSCF
%maxcore 5000
%tddft
    Mode sTDDFT
    Ethresh 5.0
    maxcore 5000
end

%pal
  nprocs 6
  end
* xyz 0 1
   C        4.73138         6.22076        -1.19686
   C        4.54899         5.09330        -1.95504
   C        5.59359         4.41830        -2.61535
   N        6.41863         3.84710        -3.17291
   C        3.30650         4.43290        -2.04678
   N        2.32270         3.84142        -2.07824
   C        6.01290         6.77630        -0.77924
   C        5.79865         7.57736         0.38169
   C        6.83174         8.19487         1.02510
   C        8.14475         8.04524         0.52401
   C        8.36237         7.25839        -0.64375
   C        7.27418         6.62378        -1.28675
   C        9.67652         7.12289        -1.13488
   C       10.72700         7.73108        -0.50316
   C       10.51191         8.50457         0.64705
   C        9.24832         8.65791         1.14953
   C        4.35854         7.60566         0.69873
   O        3.80733         8.15238         1.62860
   C        3.70343         6.88098        -0.42297
   C        2.36500         7.00199        -0.61975
   C        1.61772         6.80435        -1.80886
   C        0.25643         6.58138        -1.86180
   C       -0.24125         6.50952        -3.18950
   C        0.79312         6.69087        -4.13862
   S        2.33913         6.94512        -3.40691
   N        0.64076         6.68946        -5.44846
   C       -0.58323         6.49227        -5.88097
   C       -1.71453         6.33474        -5.05339
   C       -1.56060         6.35444        -3.68355
   C       -2.74130         6.31327        -2.76041
   C       -3.13713         7.73379        -2.35288
   C       -2.99911         6.23350        -5.82203
   C       -2.64600         5.86709        -7.26126
   S       -0.93546         6.45137        -7.58348
   C       -0.50694         6.34229        -0.62661
   C       -0.85004         7.36959         0.19970
   C       -1.56518         7.09922         1.39256
   C       -2.02468         7.93828         2.38866
   C       -1.97692         9.43237         2.37092
   C       -3.41278         9.99612         2.25909
   N       -4.16555         9.45484         1.14020
   C       -1.23071        10.01504         3.58075
   N       -0.03387         9.23571         3.84103
   C       -2.66789         7.10034         3.37418
   C       -3.24341         7.38121         4.55647
   C       -3.85753         6.32653         5.40333
   C       -3.78832         4.94126         4.83467
   C       -3.18296         4.67108         3.66475
   C       -2.59604         5.70849         2.90300
   C       -1.90613         5.71736         1.70733
   C       -1.50891         4.67972         0.83277
   C       -0.82823         4.98561        -0.30162
   C       -5.28779         6.63994         5.74979
   C       -6.03270         7.56299         5.13621
   C       -7.39052         7.85053         5.49172
   C       -8.24429         8.73809         4.85384
   C       -9.47527         8.93517         5.57909
   C       -9.49787         8.14819         6.74882
   S       -8.04848         7.22179         6.97163
   N      -10.48024         8.07592         7.62514
   C      -11.52767         8.82318         7.37042
   C      -11.66464         9.63594         6.22978
   C      -10.64238         9.68896         5.29873
   C      -10.83146        10.46700         4.02593
   C      -11.04302         9.52317         2.84039
   C      -13.00324        10.31349         6.15239
   C      -13.63031        10.26515         7.54407
   S      -12.90195         8.83985         8.43996
   C       -7.90149         9.41761         3.63994
   C       -7.32318         8.89229         2.52703
   C       -7.03475         9.63769         1.31148
   C       -6.89269        10.99431         1.20558
   C       -6.57422        11.65827         0.00349
   N       -6.32214        12.25534        -0.94428
   C       -6.98683        11.90014         2.28108
   N       -7.05043        12.69515         3.10816
   C       -6.88323         8.67542         0.22934
   C       -6.92395         7.36351         0.78070
   C       -7.16656         7.44285         2.23393
   O       -7.28297         6.51020         3.00001
   C       -6.78697         6.25025         0.00253
   C       -6.62999         6.40107        -1.39392
   C       -6.62977         7.70955        -1.95775
   C       -6.74867         8.84442        -1.12284
   C       -6.50924         7.84560        -3.35628
   C       -6.38964         6.74537        -4.16028
   C       -6.37898         5.45775        -3.60254
   C       -6.49496         5.28972        -2.24930
   H        6.65132         8.79016         1.90800
   H        7.46210         6.03939        -2.17418
   H        9.83764         6.52396        -2.01917
   H       11.73029         7.61893        -0.88620
   H       11.35192         8.97828         1.13284
   H        9.07625         9.25241         2.03504
   H        1.80403         7.38440         0.22784
   H       -2.49468         5.74088        -1.86695
   H       -3.58975         5.83354        -3.24896
   H       -2.29062         8.24680        -1.90431
   H       -3.94764         7.70189        -1.62935
   H       -3.46763         8.30410        -3.21806
   H       -3.51068         7.20037        -5.78846
   H       -3.66830         5.48463        -5.39652
   H       -3.30442         6.32794        -7.99342
   H       -2.64396         4.78714        -7.41176
   H       -0.57542         8.38530        -0.05248
   H       -1.43211         9.73634         1.46856
   H       -3.38055        11.08373         2.15400
   H       -3.97070         9.76080         3.16983
   H       -4.11556         8.43901         1.17029
   H       -3.74358         9.74630         0.26346
   H       -1.85753         9.95853         4.47446
   H       -1.03372        11.08463         3.38521
   H        0.57690         9.22911         3.03082
   H        0.48795         9.62995         4.61541
   H       -3.27623         8.38344         4.95829
   H       -3.30229         6.31858         6.35762
   H       -4.25435         4.16432         5.42046
   H       -3.13876         3.65827         3.29057
   H       -1.73939         3.65412         1.08036
   H       -0.49092         4.21440        -0.97805
   H       -5.72411         6.02742         6.52714
   H       -5.61780         8.15523         4.33211
   H       -9.97707        11.11812         3.84416
   H      -11.70613        11.11000         4.11663
   H      -10.20715         8.83667         2.73087
   H      -11.14639        10.09374         1.92041
   H      -11.94692         8.93579         2.98646
   H      -13.63264         9.77988         5.43334
   H      -12.92027        11.35120         5.82658
   H      -14.70941        10.13563         7.51908
   H      -13.39116        11.15834         8.12203
   H       -8.18172        10.46079         3.60197
   H       -6.80959         5.26558         0.44541
   H       -6.73985         9.82265        -1.57637
   H       -6.51614         8.83938        -3.77965
   H       -6.30725         6.85973        -5.23120
   H       -6.28657         4.59854        -4.25100
   H       -6.49155         4.30062        -1.81537
*
