# ORCA input file
# SCF done       -220.547454979493          0.000439778807
! CAM-B3LYP def2-SVP def2/J RIJCOSX Grid4 TightSCF
%maxcore 5000
%tddft
    Mode sTDDFT
    Ethresh 5.0
    maxcore 5000
end

%pal
  nprocs 6
  end
* xyz 0 1
   C      -13.86204         5.58739        -1.42087
   C      -13.17573         4.40040        -1.33217
   C      -13.51271         3.23796        -2.05591
   N      -13.73026         2.25672        -2.61148
   C      -12.04724         4.15931        -0.52394
   N      -11.12475         3.88374         0.10534
   C      -15.02941         5.82666        -2.26413
   C      -15.44517         7.17882        -2.09148
   C      -16.52051         7.69555        -2.75336
   C      -17.24773         6.86679        -3.63769
   C      -16.83977         5.51386        -3.81714
   C      -15.71972         5.00738        -3.11715
   C      -17.57239         4.69580        -4.70059
   C      -18.65672         5.18847        -5.37495
   C      -19.05763         6.52061        -5.19709
   C      -18.36770         7.34219        -4.34686
   C      -14.54950         7.83948        -1.12926
   O      -14.61038         8.99664        -0.75279
   C      -13.57416         6.82062        -0.71709
   C      -12.56555         7.00206         0.19313
   C      -12.19119         8.13167         0.93022
   S      -12.92295         9.72609         0.89580
   C      -11.80155        10.31944         2.06636
   C      -10.92348         9.37106         2.46362
   C      -11.11692         8.11881         1.83696
   C      -10.21639         7.08723         2.22398
   C       -9.29167         7.45301         3.14952
   S       -9.53255         9.19816         3.58311
   O       -9.94423         9.33117         4.95350
   O       -8.41352         9.98919         3.15050
   C       -8.24433         6.76191         3.78774
   C       -7.90234         5.46658         3.56039
   C       -6.82791         4.75853         4.19250
   C       -6.12682         5.27730         5.26337
   C       -5.04674         4.56677         5.81527
   C       -4.17840         4.88431         6.85327
   C       -4.15129         6.07911         7.73910
   C       -3.50393         7.30131         7.04265
   N       -4.25504         7.68299         5.86430
   C       -5.53400         6.48698         8.28131
   N       -5.35158         7.21167         9.52858
   C       -3.21286         3.80969         6.92464
   C       -2.13198         3.64652         7.70696
   C       -1.22861         2.46525         7.56051
   C       -1.67196         1.47202         6.53314
   C       -2.76116         1.64821         5.76315
   C       -3.55786         2.81096         5.90211
   C       -4.67237         3.27760         5.23964
   C       -5.43543         2.74918         4.16943
   C       -6.47519         3.46322         3.67511
   C       -1.05768         1.81060         8.90825
   C       -0.10271         2.16135         9.77292
   C        0.10882         1.58129        11.06939
   S        0.86713         2.54357        12.31144
   C        0.77425         1.25971        13.46762
   C        0.21041         0.16597        12.92323
   C       -0.17436         0.31720        11.55892
   C       -0.68544        -0.87291        10.95573
   C       -0.75153        -1.95652        11.76713
   S       -0.15837        -1.51794        13.42779
   O       -1.22628        -1.53203        14.38386
   O        1.05555        -2.21258        13.74279
   C       -1.16433        -3.26793        11.46000
   C       -1.14651        -4.28611        12.36158
   C       -1.53680        -5.59273        11.98186
   C       -1.53162        -6.69223        12.78924
   C       -1.89833        -8.04587        12.41131
   C       -2.35332        -8.46586        11.18704
   C       -2.69405        -9.80114        10.88365
   N       -2.98904       -10.86399        10.56483
   C       -2.55364        -7.65033        10.05418
   N       -2.74414        -7.06358         9.08475
   C       -1.69863        -8.90264        13.57457
   C       -1.23467        -8.10325        14.65792
   C       -1.12093        -6.69925        14.22259
   O       -0.77002        -5.75825        14.89734
   C       -0.95730        -8.63742        15.88291
   C       -1.13248       -10.02466        16.08591
   C       -1.59574       -10.83246        15.00739
   C       -1.87626       -10.25036        13.75040
   C       -1.76601       -12.21605        15.21937
   C       -1.49205       -12.77641        16.43708
   C       -1.03593       -11.98005        17.49833
   C       -0.86019       -10.63367        17.32660
   H      -16.81406         8.72392        -2.60360
   H      -15.43868         3.97841        -3.27540
   H      -17.26001         3.67048        -4.83431
   H      -19.21157         4.55345        -6.04925
   H      -19.91563         6.89300        -5.73659
   H      -18.67170         8.36910        -4.20566
   H      -11.94086         6.14254         0.39564
   H      -11.85788        11.33890         2.39394
   H      -10.27596         6.09362         1.80668
   H       -7.68972         7.36389         4.49417
   H       -8.46168         4.91119         2.81840
   H       -6.38146         6.23859         5.67341
   H       -3.52151         5.84711         8.60484
   H       -2.44754         7.06493         6.83109
   H       -3.54141         8.12581         7.75717
   H       -4.05508         7.06265         5.08803
   H       -4.03770         8.63005         5.58158
   H       -6.16722         5.59060         8.38345
   H       -6.00405         7.16844         7.57223
   H       -5.09060         6.57768        10.27694
   H       -6.21073         7.67517         9.79968
   H       -1.85559         4.36319         8.46846
   H       -0.24434         2.85926         7.26029
   H       -1.05422         0.59205         6.43568
   H       -3.03769         0.90970         5.02496
   H       -5.17575         1.78524         3.75740
   H       -7.06168         3.07334         2.85608
   H       -1.79394         1.06260         9.15931
   H        0.56952         2.97353         9.52346
   H        1.14552         1.40756        14.46124
   H       -0.96405        -0.90364         9.91372
   H       -1.49766        -3.45748        10.44390
   H       -0.81867        -4.10552        13.37507
   H       -1.85022        -5.70989        10.95156
   H       -0.60658        -8.00754        16.68687
   H       -2.22453       -10.89052        12.95566
   H       -2.11741       -12.82474        14.39912
   H       -1.62517       -13.83701        16.58952
   H       -0.82447       -12.43904        18.45254
   H       -0.50925       -10.01564        18.13999
*
