# ORCA input file
# SCF done       -222.597223471869          0.000854536595
! CAM-B3LYP def2-SVP def2/J RIJCOSX Grid4 TightSCF
%maxcore 5000
%tddft
    Mode sTDDFT
    Ethresh 5.0
    maxcore 5000
end

%pal
  nprocs 6
  end
* xyz 0 1
   C        3.83584         6.31092        -5.44388
   C        2.92637         6.43041        -4.42583
   C        3.25417         6.85832        -3.12501
   N        3.47304         7.21312        -2.05541
   C        1.58370         6.02657        -4.56027
   N        0.50524         5.63971        -4.63391
   C        5.28296         6.40583        -5.30976
   C        5.88193         5.71104        -6.40170
   C        7.23724         5.60201        -6.52016
   C        8.06556         6.20135        -5.54377
   C        7.47116         6.90698        -4.45783
   C        6.06411         6.99700        -4.35471
   C        8.30982         7.50470        -3.49541
   C        9.67091         7.41031        -3.59712
   C       10.25562         6.71532        -4.66614
   C        9.47024         6.12323        -5.61770
   C        4.82441         5.20202        -7.29742
   O        4.94882         4.51909        -8.28854
   C        3.55878         5.77117        -6.75860
   C        2.44087         5.82324        -7.52874
   C        1.33293         6.70100        -7.40292
   S        1.48986         8.27633        -6.65616
   C       -0.11440         8.67560        -7.08436
   C       -0.75881         7.66418        -7.73787
   C        0.06701         6.53572        -7.93428
   C       -0.41160         5.30445        -8.62981
   C       -1.93848         5.27093        -8.67690
   C       -2.48963         6.59864        -9.18706
   C       -2.18609         7.71407        -8.18008
   C       -3.15251         7.59890        -6.99191
   O       -4.34461         7.52364        -7.12911
   O       -2.49329         7.59732        -5.83967
   C       -3.12911         7.58245        -4.59842
   C       -4.28620         8.25206        -4.34703
   C       -4.80600         8.23751        -3.02755
   C       -5.93176         8.82606        -2.47948
   C       -6.97874         9.65144        -3.14960
   C       -6.41902        11.01295        -3.59765
   N       -6.12495        11.83512        -2.43333
   C       -7.62729         8.91818        -4.33680
   N       -8.80515         9.64996        -4.77894
   C       -5.91583         8.51722        -1.06823
   C       -6.73059         8.89369        -0.06679
   C       -6.49078         8.47296         1.34171
   C       -5.29870         7.59004         1.53305
   C       -4.48693         7.22836         0.52136
   C       -4.73970         7.68145        -0.79382
   C       -4.07024         7.52042        -1.99237
   C       -2.87535         6.83837        -2.31622
   C       -2.41484         6.86764        -3.59317
   C       -7.72820         7.78784         1.86594
   C       -8.48002         8.26454         2.85810
   C       -9.65703         7.62821         3.37829
   S      -10.24020         6.11791         2.72738
   C      -11.53499         6.08719         3.84843
   C      -11.52736         7.17105         4.67441
   C      -10.45888         8.06384         4.40709
   C      -10.24157         9.30586         5.21328
   C      -11.52077         9.71186         5.94040
   C      -12.10292         8.52805         6.70645
   C      -12.55473         7.42316         5.75013
   C      -13.83970         7.78344         5.04025
   O      -14.34903         8.86088         4.93911
   O      -14.36144         6.65760         4.46649
   C      -15.49133         6.73971         3.74645
   C      -15.95003         5.65638         3.08431
   C      -17.15529         5.53516         2.27807
   C      -18.10788         6.49760         2.07562
   C      -19.26068         6.31590         1.28268
   N      -20.21769         6.23248         0.65403
   C      -18.08339         7.79482         2.62967
   N      -18.13530         8.86296         3.04628
   C      -17.17761         4.18418         1.73365
   C      -16.03121         3.47551         2.19734
   C      -15.22342         4.35298         3.05745
   O      -14.18308         4.08340         3.61439
   C      -15.79259         2.17774         1.84652
   C      -16.70677         1.51267         0.99972
   C      -17.85534         2.21324         0.52977
   C      -18.07566         3.55658         0.90852
   C      -18.76141         1.54032        -0.31559
   C      -18.54547         0.23895        -0.67881
   C      -17.41453        -0.44960        -0.21493
   C      -16.51459         0.17388         0.60641
   H        7.67516         5.06560        -7.34885
   H        5.63498         7.54342        -3.52902
   H        7.85407         8.03603        -2.67280
   H       10.30475         7.87048        -2.85392
   H       11.33147         6.65159        -4.73202
   H        9.91555         5.58674        -6.44281
   H        2.44363         5.18577        -8.40791
   H       -0.50323         9.63940        -6.81993
   H       -0.03098         4.41612        -8.12313
   H       -0.01195         5.29987        -9.65046
   H       -2.32892         5.08039        -7.67531
   H       -2.26441         4.45711        -9.32610
   H       -3.57062         6.53620        -9.31944
   H       -2.03568         6.84166       -10.15003
   H       -2.40519         8.68765        -8.63555
   H       -4.79170         8.79285        -5.12899
   H       -7.77442         9.85320        -2.42334
   H       -7.15219        11.46645        -4.28262
   H       -5.48284        10.86276        -4.13869
   H       -6.98682        12.08959        -1.96131
   H       -5.66539        12.69334        -2.71635
   H       -7.84741         7.88251        -4.02876
   H       -6.93531         8.87494        -5.17830
   H       -9.52945         9.61245        -4.06836
   H       -9.18051         9.23322        -5.62346
   H       -7.59768         9.51820        -0.23267
   H       -6.34440         9.38719         1.93732
   H       -5.12363         7.25198         2.54323
   H       -3.62957         6.59623         0.70271
   H       -2.33605         6.30597        -1.54742
   H       -1.50333         6.37042        -3.88615
   H       -7.98082         6.85442         1.38301
   H       -8.21084         9.19694         3.33816
   H      -12.23306         5.27259         3.83423
   H       -9.90653        10.12183         4.56983
   H       -9.44912         9.11676         5.94611
   H      -12.25902        10.06977         5.22259
   H      -11.30250        10.52603         6.63319
   H      -12.95643         8.85656         7.30135
   H      -11.34729         8.12244         7.38254
   H      -12.73934         6.48734         6.28785
   H      -15.98086         7.70887         3.74033
   H      -14.91572         1.66443         2.21249
   H      -18.95344         4.05840         0.53402
   H      -19.63061         2.07449        -0.67016
   H      -19.24543        -0.26760        -1.32625
   H      -17.26003        -1.47620        -0.51154
   H      -15.64201        -0.35097         0.96687
*
