# ORCA input file
# SCF done       -202.498426585494          0.000656975480
! CAM-B3LYP def2-SVP def2/J RIJCOSX Grid4 TightSCF
%maxcore 5000
%tddft
    Mode sTDDFT
    Ethresh 5.0
    maxcore 5000
end

%pal
  nprocs 6
  end
* xyz 0 1
   C       16.69097        -0.42299         8.66416
   C       16.74387        -1.52671         9.46911
   F       17.28048        -1.42428        10.69964
   C       16.25683        -2.77648         9.06411
   C       15.70663        -2.89903         7.81848
   C       15.62477        -1.79332         6.94790
   C       16.12913        -0.53141         7.37736
   C       16.06760         0.59074         6.51756
   C       15.51140         0.45265         5.27555
   C       14.99044        -0.80619         4.85917
   C       15.04836        -1.90740         5.66244
   C       14.40630        -0.66797         3.51000
   O       13.92051        -1.54224         2.82464
   C       14.49965         0.77578         3.18921
   C       15.34474         1.40173         4.17796
   C       16.07808         2.54963         4.00663
   C       16.94683         3.07998         4.97877
   N       17.65558         3.56006         5.74447
   C       16.11837         3.25038         2.78666
   N       16.21502         3.80365         1.78461
   C       13.79172         1.29197         2.14101
   C       13.40020         2.62091         1.88893
   S       13.12899         3.75879         3.18398
   C       12.38463         4.87835         2.14704
   C       12.36197         4.45627         0.83282
   C       12.97266         3.17161         0.66875
   C       13.10423         2.60488        -0.62102
   C       12.50169         3.26959        -1.68025
   C       11.84345         4.50966        -1.50136
   C       11.79687         5.11542        -0.28371
   O       12.55712         2.79391        -2.94515
   C       13.89026         1.38879        -0.82358
   C       15.18230         1.31603        -0.43240
   C       15.98552         0.14907        -0.36714
   C       15.54221        -1.13942        -0.24705
   C       16.36009        -2.26522         0.05128
   C       15.67129        -3.39797         0.34546
   C       14.26619        -3.25371         0.26841
   S       13.85747        -1.63533        -0.24438
   C       13.30236        -4.18983         0.57054
   C       13.49422        -5.51225         1.03613
   C       12.33849        -6.17840         1.29665
   C       11.16366        -5.42624         1.03778
   S       11.59330        -3.83041         0.44894
   C        9.88529        -5.87823         1.24671
   C        8.68029        -5.22850         0.94737
   S        8.62906        -3.78021        -0.02706
   C        6.92770        -3.80304        -0.11322
   C        6.37950        -4.85836         0.58870
   C        7.37198        -5.66037         1.23902
   C        6.98138        -6.74399         2.06817
   C        5.62319        -7.04368         2.14802
   C        4.66027        -6.27431         1.45947
   C        5.01429        -5.19307         0.70999
   O        5.21647        -8.04270         2.97373
   C        7.94046        -7.39023         2.94652
   C        8.15038        -8.71193         3.14131
   C        7.52963        -9.75467         2.41138
   C        7.84162       -11.08104         2.45830
   C        6.85387       -12.08827         1.99183
   O        5.86778       -11.88388         1.31952
   C        7.30023       -13.36823         2.57901
   C        6.68276       -14.58476         2.56114
   C        7.28297       -15.67359         3.23362
   C        8.51671       -15.47598         3.91921
   C        9.10311       -16.56196         4.59763
   C        8.48045       -17.77894         4.58111
   C        7.26934       -17.99445         3.91024
   C        6.68573       -16.95032         3.24764
   F        9.03915       -18.81779         5.22976
   C        9.13989       -14.20605         3.91227
   C        8.54339       -13.16963         3.24695
   C        8.95736       -11.78341         3.04755
   C       10.24020       -11.31379         3.18712
   C       10.67907       -10.06397         2.71153
   N       11.10992        -9.08300         2.29687
   C       11.29983       -12.07267         3.72323
   N       12.19443       -12.63581         4.17188
   H       17.07938         0.52289         9.00801
   H       16.32610        -3.61232         9.74211
   H       15.32380        -3.85149         7.48374
   H       16.45253         1.53557         6.86777
   H       14.65670        -2.85501         5.32365
   H       13.39182         0.55137         1.45434
   H       11.98807         5.79105         2.54675
   H       11.42005         4.97226        -2.37863
   H       11.33950         6.08338        -0.15481
   H       13.07639         1.97835        -2.96577
   H       13.41049         0.55048        -1.31327
   H       15.65713         2.22675        -0.08650
   H       17.05276         0.29896        -0.26974
   H       17.43248        -2.17913         0.07716
   H       16.12985        -4.32648         0.63525
   H       14.47665        -5.92622         1.17568
   H       12.27454        -7.18700         1.66330
   H        9.80413        -6.87818         1.65348
   H        6.40821        -3.05589        -0.67886
   H        3.61831        -6.54678         1.56585
   H        4.27079        -4.58943         0.21360
   H        4.25375        -8.10882         2.96257
   H        8.55009        -6.69640         3.51479
   H        8.87101        -8.99608         3.89622
   H        6.66720        -9.50512         1.80772
   H        5.74522       -14.71678         2.04200
   H       10.03727       -16.43333         5.12178
   H        6.82475       -18.97678         3.93137
   H        5.75229       -17.09174         2.72378
   H       10.06999       -14.08275         4.44437
*
