# ORCA input file
# SCF done       -212.884278639626          0.000347895283
! CAM-B3LYP def2-SVP def2/J RIJCOSX Grid4 TightSCF
%maxcore 5000
%tddft
    Mode sTDDFT
    Ethresh 5.0
    maxcore 5000
end

%pal
  nprocs 6
  end
* xyz 0 1
   C       -9.51855         1.85196        -6.29614
   C       -9.52118         3.18796        -6.60028
   C       -9.68866         3.70000        -7.90363
   N       -9.82759         4.16916        -8.94144
   C       -9.30748         4.20856        -5.65252
   N       -9.12105         5.06665        -4.91207
   C       -9.62539         0.75186        -7.24674
   C       -9.34291        -0.46800        -6.57501
   C       -9.33812        -1.68003        -7.22310
   C       -9.64512        -1.69237        -8.58767
   C       -9.95871        -0.47571        -9.24179
   C       -9.94353         0.75192        -8.59049
   S      -10.33137        -0.71360       -10.92052
   C      -10.03176        -2.41705       -10.73914
   C       -9.69259        -2.79432        -9.48025
  Br      -10.14665        -3.56299       -12.21220
   C       -9.09986        -0.18334        -5.15639
   O       -8.82568        -0.97389        -4.26107
   C       -9.29148         1.26282        -4.99558
   C       -9.31375         1.86277        -3.76621
   N       -9.06019         1.16478        -2.64613
   C       -8.90636         1.68093        -1.38816
   S       -9.40088         0.73629        -0.02008
   C       -8.88640         2.01834         1.02738
   N       -9.02782         1.83228         2.41087
   O       -8.66499         2.73414         3.14079
   O       -9.50427         0.77224         2.77503
   C       -8.36430         3.09445         0.36257
   C       -8.35725         2.91989        -1.03629
   C       -7.75843         3.80200        -2.00043
   C       -7.26453         5.03443        -1.79497
   C       -6.66730         5.82753        -2.84661
   C       -6.79274         7.23176        -2.76962
   O       -7.34603         7.71970        -1.63362
   C       -7.56705         9.11274        -1.50961
   C       -8.21980         9.35357        -0.15756
   C       -6.39224         8.01411        -3.84084
   C       -5.84666         7.45172        -4.98902
   C       -5.43667         8.34048        -6.12871
   C       -4.19229         9.16156        -5.78612
   C       -5.68306         6.07155        -5.06218
   O       -5.13829         5.50946        -6.19782
   C       -3.75152         5.21664        -6.12382
   C       -3.37238         4.41445        -7.35693
   C       -6.07623         5.25047        -3.98979
   C       -5.82545         3.82540        -4.03484
   C       -5.99462         3.03416        -5.12412
   C       -5.78939         1.64009        -5.10191
   C       -5.97011         0.82259        -6.18575
   C       -5.83353        -0.58616        -6.24000
   C       -6.06355        -1.12099        -7.47043
   C       -6.39158        -0.16409        -8.45746
   S       -6.40922         1.44035        -7.77580
   C       -6.67872        -0.38186        -9.79316
   C       -6.69303        -1.60477       -10.49346
   C       -7.05060        -1.48058       -11.80496
   C       -7.33551        -0.15509       -12.20097
   S       -7.11557         0.93881       -10.85668
   C       -7.78463         0.25772       -13.44134
   C       -7.99201         1.58981       -13.77719
   C       -8.52272         2.08646       -14.94979
   C       -9.28262         1.45067       -15.98580
   C      -10.08410         0.33647       -15.85212
   C      -10.82768        -0.22837       -16.90497
   N      -11.43267        -0.73962       -17.73708
   C      -10.35280        -0.28557       -14.62182
   N      -10.66001        -0.79118       -13.63630
   C       -9.25071         2.32690       -17.15631
   C       -8.65306         3.55599       -16.78079
   C       -8.22387         3.47327       -15.36632
   O       -7.69602         4.34053       -14.70469
   C       -8.51486         4.60570       -17.65352
   C       -8.97819         4.43135       -18.96312
   C       -9.56032         3.19660       -19.33093
   C       -9.70906         2.13558       -18.44420
   S      -10.05341         3.19366       -20.99754
   C       -9.48227         4.83172       -21.17276
   C       -8.94816         5.35482       -20.04424
  Br       -9.64298         5.69573       -22.83041
   H       -9.11017        -2.59127        -6.69249
   H      -10.17588         1.65467        -9.13026
   H       -9.48319        -3.81008        -9.19825
   H       -9.58526         2.90282        -3.65201
   H       -8.97022         0.14914        -2.79652
   H       -7.98799         3.96229         0.87183
   H       -7.69822         3.40611        -3.00203
   H       -7.38718         5.53270        -0.84477
   H       -8.22585         9.46046        -2.31615
   H       -6.61269         9.65353        -1.57170
   H       -9.16062         8.81345        -0.09860
   H       -8.40910        10.41449        -0.02335
   H       -7.56827         9.00494         0.63908
   H       -6.51726         9.08495        -3.81332
   H       -6.25896         9.02017        -6.36278
   H       -5.24366         7.72597        -7.00807
   H       -4.37772         9.80689        -4.93056
   H       -3.90977         9.78316        -6.63217
   H       -3.35577         8.50960        -5.54301
   H       -3.53834         4.64238        -5.21012
   H       -3.17408         6.15168        -6.08236
   H       -3.91429         3.47256        -7.37024
   H       -2.30470         4.21413        -7.35457
   H       -3.63067         4.97197        -8.25274
   H       -5.48370         3.37293        -3.10984
   H       -6.33977         3.47347        -6.04982
   H       -5.48604         1.17747        -4.17093
   H       -5.57724        -1.15685        -5.36519
   H       -6.00648        -2.17032        -7.69577
   H       -6.44196        -2.53731       -10.02102
   H       -7.12611        -2.30117       -12.49631
   H       -7.94785        -0.51570       -14.17891
   H       -7.61713         2.34220       -13.08935
   H       -8.06490         5.53408       -17.33845
   H      -10.15682         1.21162       -18.77095
   H       -8.54858         6.35006       -19.97423
*
