# ORCA input file
# SCF done       -177.296470849568          0.000339504272
! CAM-B3LYP def2-SVP def2/J RIJCOSX Grid4 TightSCF
%maxcore 5000
%tddft
    Mode sTDDFT
    Ethresh 5.0
    maxcore 5000
end

%pal
  nprocs 6
  end
* xyz 0 1
   C      -10.95977         9.90119        -1.99854
   C      -12.29517         9.75302        -1.74181
   C      -12.85255         9.77257        -0.44435
   N      -13.36231         9.78454         0.58373
   C      -13.30228         9.50938        -2.70258
   N      -14.18705         9.27830        -3.39611
   C       -9.91642        10.03087        -0.99425
   C       -8.65765         9.95032        -1.63651
   C       -7.46927        10.02005        -0.94929
   C       -7.52478        10.18431         0.43786
   C       -8.78865        10.27477         1.07131
   C       -9.98909        10.19993         0.37795
   S       -8.62880        10.48346         2.78858
   C       -6.89210        10.44413         2.63591
   C       -6.45200        10.28401         1.36478
  Br       -5.82313        10.61686         4.16680
   C       -8.84260         9.78744        -3.09331
   O       -7.94961         9.64686        -3.89458
   C      -10.31872         9.86590        -3.31497
   C      -10.98592        10.04139        -4.47738
   C      -10.49714        10.03678        -5.84413
   N      -11.33680        10.60274        -6.72151
   C      -10.96491        10.60310        -7.98778
   C       -9.76306        10.05862        -8.40958
   C       -8.94232         9.49472        -7.42133
   N       -9.33975         9.48050        -6.14737
   C       -7.64416         8.93539        -7.72374
   C       -6.82882         8.51939        -6.73888
   C       -5.50002         8.02484        -6.94239
   C       -4.66593         7.65502        -5.95937
   C       -5.01682         7.66354        -4.50457
   C       -3.25188         7.18160        -6.22918
   N       -2.88706         7.04447        -7.61229
   C       -2.59936         8.09287        -8.40223
   C       -2.32937         8.00860        -9.73589
   C       -2.01456         9.13046       -10.51602
   C       -1.65630         9.09684       -11.84072
   C       -1.34872        10.20096       -12.66744
   C       -0.98388         9.86609       -13.93737
   C       -0.97364         8.47543       -14.18143
   S       -1.47215         7.60332       -12.75794
   C       -0.59754         7.82928       -15.34975
   C       -0.18754         8.41432       -16.56188
   C        0.16389         7.50528       -17.52008
   C        0.04976         6.16208       -17.10924
   S       -0.53222         6.08244       -15.46645
   C        0.38928         5.04486       -17.85517
   C        0.25667         3.74214       -17.40372
   C        0.65271         2.58131       -18.04446
   C        0.03913         1.29458       -17.66368
   O       -0.67254         1.07680       -16.70340
   C        0.43533         0.34078       -18.72233
   C        0.06653        -0.96061       -18.89243
   C        0.55182        -1.67493       -20.01249
   C        1.41089        -1.01678       -20.93828
   C        1.88516        -1.73004       -22.05580
   C        1.51486        -3.03491       -22.22608
   C        0.67297        -3.70057       -21.32661
   C        0.20244        -3.02144       -20.23661
   F        1.96887        -3.71946       -23.29543
   C        1.78344         0.33323       -20.73007
   C        1.30719         0.99963       -19.63548
   C        1.53941         2.36172       -19.14808
   C        2.57447         3.17295       -19.56310
   C        2.99488         4.33591       -18.89158
   N        3.42192         5.26226       -18.36167
   C        3.41916         2.87557       -20.64784
   N        4.12453         2.70341       -21.53906
   H       -6.52496         9.95218        -1.46660
   H      -10.92510        10.27877         0.90475
   H       -5.41363        10.23880         1.09162
   H      -12.04530        10.26322        -4.43851
   H      -11.65947        11.05909        -8.68220
   H       -9.46871        10.06716        -9.44666
   H       -7.35329         8.90126        -8.76537
   H       -7.20825         8.60140        -5.73264
   H       -5.16514         7.97874        -7.97187
   H       -5.75690         8.42396        -4.27588
   H       -4.12920         7.83731        -3.89917
   H       -5.43114         6.69604        -4.21872
   H       -3.10326         6.21599        -5.73541
   H       -2.56266         7.89633        -5.76076
   H       -3.04831         6.15344        -8.05723
   H       -2.55400         9.04970        -7.89892
   H       -2.34648         7.04309       -10.22341
   H       -2.05053        10.10331       -10.04226
   H       -1.40330        11.20973       -12.29725
   H       -0.71121        10.57737       -14.69553
   H       -0.15857         9.47977       -16.70300
   H        0.51571         7.76177       -18.50320
   H        0.76537         5.23392       -18.85026
   H       -0.29161         3.58594       -16.47900
   H       -0.58846        -1.44296       -18.18225
   H        2.53836        -1.24995       -22.76776
   H        0.41463        -4.73114       -21.51215
   H       -0.44830        -3.51287       -19.52872
   H        2.43250         0.80547       -21.45023
*
