# ORCA input file
# SCF done       -176.320340521181          0.000844215814
! CAM-B3LYP def2-SVP def2/J RIJCOSX Grid4 TightSCF
%maxcore 5000
%tddft
    Mode sTDDFT
    Ethresh 5.0
    maxcore 5000
end

%pal
  nprocs 6
  end
* xyz 0 1
   C       -3.43541        -0.99182        -1.92219
   C       -2.27690        -1.01364        -1.18544
   C       -1.75050        -2.16893        -0.57439
   N       -1.27399        -3.07617        -0.05572
   C       -1.44347         0.10100        -0.96566
   N       -0.71636         0.96365        -0.74826
   C       -4.30788        -2.13304        -2.17585
   C       -5.33217        -1.74100        -3.07356
   C       -6.31722        -2.59553        -3.50015
   C       -6.31323        -3.89709        -2.98627
   C       -5.29032        -4.28181        -2.08759
   C       -4.27783        -3.42345        -1.67746
   S       -5.47973        -5.93258        -1.57390
   C       -6.91376        -6.07659        -2.55576
   C       -7.23398        -4.95136        -3.23674
  Br       -7.85316        -7.69999        -2.58711
   C       -5.13151        -0.32747        -3.44324
   O       -5.61243         0.25613        -4.38715
   C       -4.04072         0.16016        -2.55944
   C       -3.69842         1.46839        -2.43564
   C       -4.56308         2.56645        -2.74771
   C       -4.06038         3.82154        -3.09694
   C       -4.84505         4.99522        -3.18118
   N       -4.13206         6.10491        -3.52739
   C       -2.89898         5.84626        -3.71547
   S       -2.41089         4.18581        -3.48930
   C       -6.22955         4.96318        -2.91632
   C       -6.74190         3.69185        -2.64057
   C       -5.95639         2.52156        -2.53394
   N       -6.64348         1.42407        -2.11118
   C       -7.88097         1.67249        -1.93895
   S       -8.39327         3.30804        -2.24693
   C       -7.07283         6.12966        -2.90425
   C       -6.59700         7.38029        -2.74465
   C       -7.26948         8.64467        -2.85089
   C       -8.35910         8.95123        -3.57542
   C       -9.21544         7.93275        -4.25589
   C       -8.73089        10.40178        -3.83374
   N       -7.62530        11.33585        -3.82944
   C       -6.46190        11.11270        -4.50041
   C       -6.25123        10.07385        -5.34445
   C       -4.99640         9.67055        -5.85123
   C       -4.79320         8.38005        -6.26047
   C       -3.59649         7.73410        -6.65656
   C       -3.70788         6.38493        -6.81258
   C       -5.00304         5.88044        -6.55419
   S       -6.09222         7.19029        -6.17772
   C       -5.45722         4.58023        -6.50890
   C       -4.78055         3.37604        -6.80436
   C       -5.54715         2.26611        -6.63758
   C       -6.87643         2.51664        -6.19244
   S       -7.10756         4.24346        -6.01738
   C       -7.76477         1.53560        -5.85450
   C       -9.04311         1.62035        -5.22992
   C       -9.92180         2.71339        -5.28961
   O       -9.57246         3.63927        -6.21831
   C      -10.28596         4.83100        -6.44684
   C      -11.08831         2.76720        -4.46394
   O      -11.83213         3.91353        -4.53093
   C      -12.97067         4.03043        -3.71387
   C      -11.42904         1.71986        -3.63814
   C      -10.63345         0.56843        -3.63702
   C       -9.44743         0.50474        -4.44558
   N       -8.81933        -0.65706        -4.31848
   S       -9.64144        -1.58240        -3.27614
   N      -10.83351        -0.54577        -2.93578
   H       -7.07472        -2.25948        -4.19012
   H       -3.51941        -3.76535        -0.99297
   H       -8.08448        -4.86242        -3.88762
   H       -2.74346         1.74468        -2.00466
   H       -2.17702         6.58663        -3.99861
   H       -8.59058         0.94575        -1.59474
   H       -8.13092         5.92224        -2.95711
   H       -5.53489         7.47771        -2.56272
   H       -6.71908         9.46550        -2.40737
   H       -9.85566         7.42989        -3.53110
   H       -8.58904         7.17916        -4.73330
   H       -9.85371         8.39035        -5.00856
   H       -9.45513        10.73951        -3.08606
   H       -9.22366        10.45504        -4.81298
   H       -7.60206        12.01709        -3.09005
   H       -5.66992        11.81667        -4.28283
   H       -7.06413         9.39352        -5.54500
   H       -4.15474        10.34828        -5.81561
   H       -2.68224         8.28657        -6.79088
   H       -2.89395         5.73522        -7.08402
   H       -3.75792         3.36586        -7.13980
   H       -5.20668         1.25881        -6.79270
   H       -7.38226         0.52669        -5.92517
   H      -10.33173         5.45832        -5.55591
   H      -11.29734         4.62980        -6.80593
   H       -9.71670         5.34623        -7.22075
   H      -13.71649         3.26448        -3.94788
   H      -13.38354         5.01411        -3.93435
   H      -12.71029         3.97488        -2.65222
   H      -12.29600         1.74450        -3.00221
*
