# ORCA input file
# SCF done       -197.566728215831          0.000995916323
! CAM-B3LYP def2-SVP def2/J RIJCOSX Grid4 TightSCF
%maxcore 5000
%tddft
    Mode sTDDFT
    Ethresh 5.0
    maxcore 5000
end

%pal
  nprocs 6
  end
* xyz 0 1
   C       -4.66703         4.46191         7.61112
   C       -4.78344         3.42208         8.49728
   C       -4.01657         3.29220         9.67279
   N       -3.41951         3.13728        10.64090
   C       -5.68515         2.35041         8.33777
   N       -6.40515         1.46122         8.24297
   C       -3.74642         5.59049         7.73170
   C       -3.91690         6.44576         6.61163
   C       -3.19032         7.59952         6.44183
   C       -2.25019         7.92846         7.42400
   C       -2.08719         7.07100         8.53811
   C       -2.82203         5.90261         8.70905
   S       -0.87661         7.66689         9.63087
   C       -0.60855         9.04152         8.59191
   C       -1.38528         9.05488         7.48213
  Br        0.66926        10.32849         9.06869
   C       -4.95787         5.88557         5.74432
   O       -5.37636         6.34851         4.68447
   C       -5.41601         4.65466         6.39155
   C       -6.42093         3.88935         5.84591
   N       -6.99031         4.26963         4.69707
   C       -8.01135         3.67656         4.03551
   S       -8.77196         2.23047         4.62011
   C       -9.86292         2.29341         3.27252
   N      -10.82615         1.27743         3.16479
   O      -11.58533         1.32078         2.21637
   O      -10.82431         0.42805         4.03661
   C       -9.65576         3.35494         2.43720
   C       -8.58246         4.17434         2.85057
   C       -8.11365         5.34359         2.17861
   C       -8.75679         5.97246         1.15791
   C       -8.24447         7.12498         0.53624
   C       -8.90252         7.85897        -0.41595
   C       -8.43206         9.03751        -1.04967
   C       -9.31827         9.60331        -1.91139
   C      -10.54592         8.90629        -2.01045
   S      -10.51886         7.48244        -0.99144
   C      -11.65820         9.27017        -2.73924
   C      -11.83351        10.43198        -3.52818
   C      -13.07630        10.56486        -4.06053
   C      -13.96455         9.50794        -3.72788
   S      -13.12664         8.31467        -2.73293
   C      -15.27957         9.41832        -4.07350
   N      -16.07994         8.38477        -3.69671
   C      -17.40840         8.21662        -3.90401
   S      -18.22768         7.03830        -2.91962
   C      -19.74324         7.52148        -3.62067
   N      -20.88344         6.83770        -3.18030
   O      -21.96267         7.17979        -3.61913
   O      -20.69262         5.94646        -2.36831
   C      -19.62254         8.52035        -4.54423
   C      -18.28470         8.92769        -4.74198
   C      -17.90287         9.88415        -5.74156
   C      -18.69831        10.90035        -6.15344
   C      -18.29951        11.79658        -7.17229
   C      -19.00030        12.82841        -7.72054
   C      -20.38325        13.24500        -7.61896
   C      -21.47361        12.44733        -7.38424
   C      -22.80165        12.92362        -7.36115
   N      -23.89603        13.26629        -7.31674
   C      -21.42197        11.04643        -7.23400
   N      -21.44102         9.90225        -7.13973
   C      -20.44282        14.64420        -8.03518
   C      -19.18930        15.01096        -8.58824
   C      -18.25892        13.87229        -8.47843
   O      -17.11290        13.80707        -8.86370
   C      -18.94633        16.26035        -9.10501
   C      -19.98458        17.19677        -9.06469
   C      -21.22725        16.82669        -8.49602
   C      -21.47606        15.56039        -7.98036
   S      -22.36402        18.13954        -8.53494
   C      -21.17308        19.15305        -9.30716
   C      -19.98417        18.54189        -9.52471
  Br      -21.61086        20.92155        -9.75163
   H       -3.34232         8.23021         5.57991
   H       -2.66133         5.28361         9.57585
   H       -1.35066         9.82687         6.73522
   H       -6.78587         2.98323         6.31140
   H       -6.59223         5.14904         4.31503
   H      -10.25101         3.51485         1.55731
   H       -7.17972         5.77046         2.51943
   H       -9.71292         5.60836         0.80781
   H       -7.26789         7.47633         0.84265
   H       -7.45332         9.42975        -0.83755
   H       -9.12887        10.50120        -2.47131
   H      -11.03946        11.14249        -3.66751
   H      -13.39332        11.38804        -4.67512
   H      -15.73655        10.21922        -4.63041
   H      -15.64240         7.70364        -3.08373
   H      -20.45884         8.89691        -5.10813
   H      -16.94715         9.74017        -6.22880
   H      -19.63923        11.06724        -5.65323
   H      -17.27379        11.71566        -7.52036
   H      -17.98510        16.50810        -9.52738
   H      -22.43687        15.32827        -7.55165
   H      -19.14051        19.01854        -9.98969
*
