# ORCA input file
# SCF done       -232.756968797635          0.003809735453
! CAM-B3LYP def2-SVP def2/J RIJCOSX Grid4 TightSCF
%maxcore 5000
%tddft
    Mode sTDDFT
    Ethresh 5.0
    maxcore 5000
end

%pal
  nprocs 6
  end
* xyz 0 1
   C       -0.65044        -5.98691        -4.67883
   C       -1.54546        -6.93825        -4.24120
   C       -1.26727        -8.31900        -4.19967
   N       -1.10029        -9.45418        -4.15781
   C       -2.86288        -6.69696        -3.81262
   N       -3.95425        -6.59649        -3.46273
   C        0.70705        -6.26429        -5.14724
   C        1.29049        -5.05189        -5.58849
   C        2.56990        -4.98001        -6.08003
   C        3.31602        -6.16303        -6.13472
   C        2.72681        -7.36814        -5.68888
   C        1.42910        -7.44113        -5.19500
   S        3.82521        -8.70809        -5.83363
   C        5.04400        -7.64306        -6.48106
   C        4.65150        -6.35177        -6.58628
  Br        6.72147        -8.33701        -6.95789
   C        0.31967        -3.95045        -5.40569
   O        0.49494        -2.78258        -5.69646
   C       -0.87127        -4.56982        -4.79708
   C       -1.98976        -3.87492        -4.37879
   C       -2.19350        -2.50744        -4.52191
   C       -3.32230        -1.87425        -4.03213
   C       -3.64370        -0.50151        -4.12424
   C       -4.82480        -0.16262        -3.52665
   C       -5.48795        -1.25372        -2.93048
   S       -4.57635        -2.72736        -3.16405
   C       -6.67737        -1.28077        -2.22038
   C       -7.56516        -0.22764        -1.90935
   C       -8.64294        -0.62278        -1.17532
   C       -8.66349        -2.00688        -0.86303
   S       -7.25633        -2.78630        -1.55333
   C       -9.62011        -2.65020        -0.11708
   C       -9.66123        -4.02200         0.18785
   S       -8.56152        -5.12945        -0.58120
   C       -9.34553        -6.50820         0.11839
   C      -10.40588        -6.11517         0.92282
   C      -10.54619        -4.71871         1.01658
   C      -11.47620        -4.09000         2.02624
   C      -10.80777        -2.94405         2.80798
   F       -9.47656        -3.04937         2.87866
   F      -11.07614        -1.73154         2.29389
   F      -11.23902        -2.87690         4.07804
   C      -11.92298        -5.15250         3.04125
   C      -12.48953        -6.35996         2.31881
   C      -11.39505        -7.08166         1.52051
   C      -12.11032        -7.86451         0.41384
   F      -11.32554        -8.68730        -0.28318
   F      -13.08273        -8.63679         0.93221
   F      -12.70670        -7.05224        -0.46870
   C       -8.74681        -7.79159        -0.08129
   S       -8.59043        -8.90105         1.25216
   C       -7.56101        -9.96424         0.33940
   C       -7.31112        -9.43691        -0.91863
   C       -8.04578        -8.25746        -1.18033
   C       -8.16539        -7.69563        -2.57485
   C       -9.62933        -7.63885        -3.02258
   F      -10.40187        -6.78179        -2.34314
   F       -9.71844        -7.25427        -4.30871
   F      -10.22817        -8.83372        -2.94504
   C       -7.44633        -8.60120        -3.58401
   C       -6.07276        -8.96457        -3.05726
   C       -6.19612        -9.88398        -1.83343
   C       -4.85538        -9.79115        -1.09183
   F       -4.72981        -8.63019        -0.43240
   F       -4.64092       -10.76019        -0.19016
   F       -3.81921        -9.85999        -1.94433
   C       -7.20423       -11.19889         0.95622
   C       -6.89534       -12.34467         0.30791
   C       -6.56028       -13.55959         0.95241
   O       -6.46605       -13.66096         2.30303
   C       -6.10728       -14.93265         2.61128
   C       -5.97113       -15.66630         1.43950
   C       -6.25928       -14.78908         0.37507
   O       -6.25167       -15.07257        -0.94364
   O       -5.62655       -16.97199         1.26220
   C       -5.92505       -15.33338         3.96632
   C       -6.03505       -14.50341         5.02388
   C       -5.85129       -14.92262         6.38198
   C       -5.94066       -14.09782         7.42648
   H        2.98556        -4.04033        -6.40864
   H        1.02883        -8.38476        -4.86425
   H        5.27587        -5.56307        -6.96476
   H       -2.77693        -4.43180        -3.88460
   H       -1.44758        -1.91098        -5.02659
   H       -2.99320         0.19198        -4.62703
   H       -5.22631         0.83449        -3.49658
   H       -7.38550         0.78320        -2.22831
   H       -9.42424         0.03464        -0.83734
   H      -10.42974        -2.03260         0.23927
   H      -12.35430        -3.65900         1.52892
   H      -12.68235        -4.73313         3.70119
   H      -11.06658        -5.45133         3.64962
   H      -13.27807        -6.02870         1.63877
   H      -12.93278        -7.05269         3.03443
   H      -10.87860        -7.81610         2.14692
   H       -7.76286        -6.67920        -2.63037
   H       -7.35546        -8.08073        -4.53710
   H       -8.03347        -9.50961        -3.74104
   H       -5.53969        -8.05053        -2.78582
   H       -5.49178        -9.46883        -3.82920
   H       -6.32341       -10.92204        -2.15256
   H       -7.26357       -11.22159         2.03515
   H       -6.89765       -12.40961        -0.76835
   H       -5.98192       -15.99385        -1.05185
   H       -5.45247       -17.38090         2.11602
   H       -5.67731       -16.37664         4.12331
   H       -6.27237       -13.46351         4.85018
   H       -5.62750       -15.97065         6.53838
   H       -6.15812       -13.05034         7.29779
   H       -5.79888       -14.43934         8.43685
*
