# ORCA input file
# SCF done       -179.598596559166          0.000905650706
! CAM-B3LYP def2-SVP def2/J RIJCOSX Grid4 TightSCF
%maxcore 5000
%tddft
    Mode sTDDFT
    Ethresh 5.0
    maxcore 5000
end

%pal
  nprocs 6
  end
* xyz 0 1
   C       -4.66718         4.27182        -9.27588
   C       -3.70636         4.97278        -8.58286
   C       -3.54560         6.36898        -8.64455
   N       -3.38672         7.50643        -8.61028
   C       -2.85892         4.40761        -7.61774
   N       -2.16827         4.04118        -6.77252
   C       -5.66699         4.84761       -10.15790
   C       -6.63072         3.85232       -10.45908
   C       -7.70901         4.08992       -11.27454
   C       -7.84373         5.37203       -11.82027
   C       -6.87677         6.36006       -11.51355
   C       -5.78627         6.11957       -10.68715
   S       -7.23266         7.86709       -12.30127
   C       -8.65284         7.15949       -13.02536
   C       -8.85374         5.86198       -12.69103
  Br       -9.73447         8.20048       -14.14948
   C       -6.25505         2.59133        -9.79323
   O       -6.83291         1.52647        -9.87713
   C       -4.97584         2.87257        -9.10701
   C       -4.15326         1.91902        -8.57128
   N       -4.53136         0.68847        -8.16118
   C       -5.80184         0.28954        -7.80601
   S       -6.31242        -1.31127        -8.23163
   C       -7.86379        -0.98942        -7.54144
   N       -8.82249        -2.01246        -7.56664
   O       -9.91357        -1.77527        -7.08552
   O       -8.48261        -3.06936        -8.06815
   C       -7.97228         0.27112        -7.01969
   C       -6.78343         1.01665        -7.13321
   C       -6.64620         2.34128        -6.55781
   C       -5.50448         2.81670        -6.04024
   C       -5.25049         4.11313        -5.45726
   C       -5.73596         5.31115        -5.80924
   C       -6.74198         5.55846        -6.88536
   C       -5.21849         6.54282        -5.10516
   N       -3.77119         6.58118        -5.10264
   C       -3.05007         7.58922        -4.59796
   C       -3.55158         8.68969        -3.96163
   C       -2.73110         9.70193        -3.44802
   C       -3.19059        10.81616        -2.78943
   C       -2.42640        11.87187        -2.24507
   C       -3.16367        12.84741        -1.64214
   C       -4.55650        12.61440        -1.67631
   S       -4.90318        11.11755        -2.49941
   C       -5.56373        13.40802        -1.15565
   C       -5.44476        14.63665        -0.47620
   C       -6.63730        15.16934        -0.08746
   C       -7.76779        14.38862        -0.43791
   S       -7.25443        12.94854        -1.28581
   C       -9.07244        14.71331        -0.15519
   C      -10.22112        13.97272        -0.48155
   S      -10.16490        12.45433        -1.33575
   C      -11.86842        12.29828        -1.29261
   C      -12.47194        13.34746        -0.65887
   C      -11.54589        14.30968        -0.19100
   C      -11.86832        15.56589         0.54375
   F      -11.41799        16.66440        -0.10320
   F      -13.16701        15.76698         0.75385
   F      -11.28027        15.60761         1.76106
   C      -13.96124        13.40912        -0.51288
   F      -14.54816        12.33717        -1.07640
   F      -14.36491        13.41690         0.76596
   F      -14.50487        14.47937        -1.10941
   H       -8.42604         3.31293       -11.48783
   H       -5.06823         6.89867       -10.49080
   H       -9.67893         5.27278       -13.04681
   H       -3.09643         2.12659        -8.45074
   H       -3.82576        -0.03770        -8.15868
   H       -8.87002         0.62959        -6.54907
   H       -7.56374         2.90642        -6.48496
   H       -4.64464         2.15853        -5.99919
   H       -4.49595         4.09025        -4.67915
   H       -6.45322         6.42438        -7.48088
   H       -7.71592         5.77286        -6.44428
   H       -6.84604         4.69708        -7.53894
   H       -5.57675         6.55118        -4.06599
   H       -5.60130         7.44498        -5.59530
   H       -3.28974         5.81774        -5.55318
   H       -1.97981         7.48480        -4.71452
   H       -4.61735         8.80659        -3.83371
   H       -1.66009         9.60756        -3.57272
   H       -1.35272        11.87912        -2.31529
   H       -2.74626        13.72130        -1.17593
   H       -4.49042        15.09646        -0.29216
   H       -6.74688        16.09922         0.44107
   H       -9.22376        15.64140         0.37638
   H      -12.34604        11.44678        -1.73272
*
