# ORCA input file
# SCF done       -210.310260958508          0.000910169026
! CAM-B3LYP def2-SVP def2/J RIJCOSX Grid4 TightSCF
%maxcore 5000
%tddft
    Mode sTDDFT
    Ethresh 5.0
    maxcore 5000
end

%pal
  nprocs 6
  end
* xyz 0 1
   C       -4.22309        10.92910        -5.62742
   C       -5.27977        10.05400        -5.69617
   C       -5.91314         9.67169        -6.89712
   N       -6.46915         9.32229        -7.83856
   C       -5.88134         9.42549        -4.59058
   N       -6.42290         8.88063        -3.73418
   C       -3.58728        11.60354        -6.75560
   C       -2.52974        12.41980        -6.27230
   C       -1.74301        13.17966        -7.10257
   C       -2.00844        13.13460        -8.47592
   C       -3.06478        12.31946        -8.94889
   C       -3.86168        11.55045        -8.10875
   S       -3.21929        12.41263       -10.67599
   C       -1.88172        13.52883       -10.74027
   C       -1.34523        13.81844        -9.52995
  Br       -1.31958        14.20575       -12.39553
   C       -2.45778        12.28855        -4.80928
   O       -1.68808        12.84071        -4.03641
   C       -3.52208        11.34926        -4.44000
   C       -3.74679        10.97541        -3.14219
   N       -3.00414        11.43540        -2.12842
   C       -3.15359        11.02475        -0.82937
   S       -2.86483        12.12312         0.47887
   C       -3.43023        10.91348         1.58431
   N       -3.41929        11.24455         2.95040
   O       -3.80890        10.41107         3.74061
   O       -3.01344        12.35816         3.23160
   C       -3.80977         9.74373         0.98197
   C       -3.63421         9.78228        -0.41527
   C       -3.82118         8.66936        -1.32019
   C       -4.78471         7.74106        -1.20564
   C       -4.90699         6.64081        -2.11056
   O       -3.82370         6.27154        -2.86441
   C       -4.13623         5.21049        -3.57929
   C       -5.44590         4.84551        -3.34428
   N       -6.14435         3.79023        -3.94669
   O       -5.56509         3.11792        -4.77239
   O       -7.30945         3.62009        -3.60678
   C       -5.96844         5.78523        -2.39133
   N       -7.24436         5.77550        -1.95123
   C       -7.93484         6.91437        -1.40145
   C       -7.97553         6.78238         0.13536
   O       -7.09256         7.04896         0.89573
   O       -9.15238         6.28822         0.50627
   C      -10.05431         6.13433        -0.59156
   C       -9.42016         6.90695        -1.76486
   C      -10.00086         8.31454        -1.85138
   C      -11.48126         8.22796        -2.20306
   C      -12.27637         7.42414        -1.16540
   C      -11.43440         6.64494        -0.12989
   O      -12.24040         5.53964         0.25692
   C      -13.24511         5.31043        -0.59454
   O      -14.03285         4.42591        -0.46565
   C      -13.20242         6.33763        -1.73911
   C      -12.69603         5.64148        -2.95452
   C      -13.39543         5.55623        -4.09336
   C      -12.92651         4.87811        -5.26137
   C      -13.43421         4.99228        -6.51160
   C      -14.42730         5.89932        -7.05761
   C      -14.63721         7.19594        -6.66966
   C      -15.58302         8.05204        -7.27281
   N      -16.35760         8.77381        -7.71496
   C      -13.85059         7.85843        -5.70470
   N      -13.20809         8.45576        -4.96425
   C      -14.98295         5.26451        -8.24514
   C      -14.18723         4.13578        -8.57232
   C      -13.12999         3.96791        -7.55486
   O      -12.23901         3.15503        -7.53184
   C      -14.43401         3.35802        -9.67777
   C      -15.52083         3.70135       -10.48886
   C      -16.31857         4.82006       -10.14331
   C      -16.06469         5.61330        -9.03176
   S      -17.61472         5.05495       -11.27475
   C      -17.07357         3.67186       -12.18860
   C      -15.97942         3.06211       -11.67260
  Br      -18.00489         3.16365       -13.73385
   H       -0.94634        13.78996        -6.70711
   H       -4.65437        10.94588        -8.51691
   H       -0.51593        14.48664        -9.38633
   H       -4.54776        10.29715        -2.88338
   H       -2.31616        12.15669        -2.37991
   H       -4.17517         8.89136         1.52577
   H       -3.13002         8.61573        -2.15226
   H       -5.51169         7.79427        -0.40975
   H       -3.39478         4.76907        -4.21586
   H       -7.79548         5.00487        -2.31684
   H       -7.42135         7.82891        -1.71226
   H      -10.13262         5.05937        -0.79955
   H       -9.58724         6.39378        -2.71418
   H       -9.47640         8.87461        -2.62582
   H       -9.86106         8.83314        -0.90048
   H      -11.58620         7.76906        -3.18706
   H      -11.89769         9.23095        -2.28072
   H      -12.90725         8.10901        -0.59109
   H      -11.26267         7.23757         0.77490
   H      -14.20749         6.71613        -1.93065
   H      -11.71545         5.18984        -2.88864
   H      -14.37336         6.01580        -4.14480
   H      -12.13219         4.15110        -5.13372
   H      -13.80796         2.51107        -9.91053
   H      -16.70089         6.45241        -8.80276
   H      -15.51398         2.19669       -12.10765
*
