# ORCA input file
# SCF done       -186.672351990601          0.000344446892
! CAM-B3LYP def2-SVP def2/J RIJCOSX Grid4 TightSCF
%maxcore 5000
%tddft
    Mode sTDDFT
    Ethresh 5.0
    maxcore 5000
end

%pal
  nprocs 6
  end
* xyz 0 1
   C       11.39926       -15.83256       -13.69943
   C       10.08771       -15.87088       -13.43069
   C        9.09178       -16.70082       -14.04902
   C        7.84299       -16.51906       -13.57071
   C        7.74629       -15.53783       -12.53977
   S        9.31655       -14.85063       -12.20331
   C        6.60918       -15.14177       -11.87641
   C        5.28768       -15.62132       -12.06808
   C        4.37123       -15.01686       -11.27269
   C        4.91349       -14.03124       -10.39793
   S        6.63932       -13.91474       -10.62154
   C        4.15730       -13.23943        -9.57185
   C        4.60316       -12.26577        -8.66028
   O        3.67337       -11.35474        -8.23428
   C        5.80926       -11.97145        -8.03351
   C        7.17632       -12.42067        -7.79849
   O        7.78123       -13.39485        -8.17433
   N        7.70389       -11.45788        -6.93234
   C        6.81269       -10.47344        -6.52569
   O        7.06293        -9.57467        -5.76236
   C        5.57849       -10.82270        -7.23103
   C        4.25523       -10.46964        -7.37856
   C        3.51885        -9.39124        -6.81784
   C        2.21191        -9.16261        -7.07231
   C        1.50760        -8.03585        -6.54522
   C        0.21853        -7.71751        -6.75570
   C       -0.75117        -8.49212        -7.58601
   C       -0.33209        -6.42079        -6.20590
   N       -0.34962        -5.42380        -7.25634
   C       -1.39734        -5.21971        -8.06397
   C       -1.32278        -4.58531        -9.26550
   C       -2.44698        -4.31321       -10.07528
   S       -4.06661        -4.62018        -9.54770
   C       -4.75783        -4.02164       -11.03894
   C       -3.74733        -3.59773       -11.89589
   C       -2.45365        -3.77590       -11.36455
   C       -1.14450        -3.49632       -12.03529
   F       -0.44681        -2.53471       -11.39347
   F       -0.34653        -4.58952       -12.01445
   F       -1.21253        -3.12699       -13.30832
   C       -3.96816        -2.97580       -13.24603
   F       -5.25188        -2.71513       -13.52606
   F       -3.33763        -1.79644       -13.35578
   F       -3.53384        -3.76295       -14.24296
   C       -6.16337        -4.03929       -11.20273
   C       -7.02434        -4.45749       -10.23397
   C       -8.42119        -4.44396       -10.42809
   C       -9.34248        -4.81423        -9.48658
   C      -10.78647        -4.79034        -9.62642
   C      -11.50417        -4.47690       -10.75187
   C      -12.91360        -4.47389       -10.81694
   N      -14.05527        -4.45037       -10.93550
   C      -10.96126        -4.12813       -12.00655
   N      -10.60815        -3.84410       -13.06164
   C      -11.36276        -5.18083        -8.34374
   C      -10.31190        -5.47612        -7.44166
   C       -9.01439        -5.27590        -8.11585
   O       -7.91784        -5.45735        -7.62743
   C      -10.53605        -5.87641        -6.14695
   C      -11.86245        -5.98827        -5.71828
   C      -12.90680        -5.68905        -6.62541
   C      -12.67971        -5.28676        -7.93541
   S      -14.46860        -5.88825        -5.89046
   C      -13.70802        -6.36413        -4.39538
   C      -12.35458        -6.37447        -4.44174
  Br      -14.77181        -6.80220        -2.91438
   H       11.82477       -16.46989       -14.45461
   H       12.06436       -15.17098       -13.17549
   H        9.36067       -17.39654       -14.82396
   H        6.97675       -17.05406       -13.91685
   H        5.05610       -16.38995       -12.78320
   H        3.31894       -15.23999       -11.27357
   H        3.08201       -13.32149        -9.65844
   H        8.65200       -11.51060        -6.58889
   H        4.09022        -8.73981        -6.17212
   H        1.68885        -9.85017        -7.71996
   H        2.10074        -7.38002        -5.91861
   H       -0.29842        -9.36723        -8.03771
   H       -1.15183        -7.86144        -8.38131
   H       -1.59017        -8.81624        -6.96954
   H        0.29093        -6.05062        -5.38787
   H       -1.35395        -6.55409        -5.84383
   H        0.55886        -5.15815        -7.61385
   H       -2.35474        -5.56128        -7.69027
   H       -0.35556        -4.27288        -9.62785
   H       -6.57079        -3.70234       -12.14384
   H       -6.64500        -4.80101        -9.28166
   H       -8.76937        -4.09631       -11.39220
   H       -9.71276        -6.09448        -5.48499
   H      -13.51047        -5.06955        -8.58525
   H      -11.72783        -6.64243        -3.61093
*
