# ORCA input file
# SCF done       -155.098513393309          0.000540637540
! CAM-B3LYP def2-SVP def2/J RIJCOSX Grid4 TightSCF
%maxcore 5000
%tddft
    Mode sTDDFT
    Ethresh 5.0
    maxcore 5000
end

%pal
  nprocs 6
  end
* xyz 0 1
   C      -13.82275       -13.02234        -8.97263
   C      -13.03862       -13.07082        -7.88774
   C      -13.28733       -13.77444        -6.66022
   C      -12.31032       -13.64620        -5.73868
   C      -11.21056       -12.83659        -6.15253
   S      -11.47919       -12.23691        -7.77532
   C      -10.07638       -12.54199        -5.43982
   C       -9.75326       -12.99551        -4.13174
   C       -8.54709       -12.56446        -3.69361
   C       -7.84720       -11.74684        -4.62926
   S       -8.78624       -11.52244        -6.08591
   C       -6.60700       -11.20819        -4.48033
   C       -6.01631       -10.42918        -5.52234
   N       -6.77479       -10.20069        -6.60512
   C       -6.25043        -9.48170        -7.57678
   C       -4.95298        -8.99606        -7.51341
   C       -4.21816        -9.30463        -6.35828
   N       -4.76519       -10.00337        -5.36797
   C       -2.82605        -8.91247        -6.20873
   C       -2.14826        -9.13271        -5.07539
   C       -0.73784        -8.85411        -4.88396
   N       -0.26136        -9.10310        -3.65894
   C        1.03074        -8.91903        -3.46315
   C        1.88107        -8.50785        -4.47428
   C        1.29590        -8.25452        -5.72557
   N       -0.01608        -8.41981        -5.90986
   C        2.10138        -7.83485        -6.84372
   C        1.58761        -7.44884        -8.03760
   C        2.38839        -7.07438        -9.13429
   C        1.91412        -6.59279       -10.32594
   C        2.68837        -6.23077       -11.45826
   C        1.96016        -5.74280       -12.49832
   C        0.57016        -5.68092       -12.24216
   S        0.21262        -6.29594       -10.64917
   C       -0.41178        -5.17492       -13.07727
   C       -0.24554        -4.63885       -14.37182
   C       -1.40139        -4.16662       -14.92116
   C       -2.53440        -4.30320       -14.08815
   S       -2.08804        -5.07930       -12.58586
   C       -3.81347        -3.86578       -14.37494
   C       -4.88562        -3.99793       -13.50021
   C       -6.15038        -3.49058       -13.73005
   C       -7.28782        -3.58304       -12.85297
   C       -7.38694        -4.31471       -11.69099
   C       -8.54009        -4.35750       -10.88328
   N       -9.44511        -4.43351       -10.17966
   C       -6.38340        -5.14169       -11.14994
   N       -5.63019        -5.84733       -10.64323
   C       -8.36246        -2.77661       -13.43125
   C       -7.91596        -2.24896       -14.66671
   C       -6.52542        -2.68823       -14.90950
   O       -5.85096        -2.41845       -15.88531
   C       -8.69840        -1.44558       -15.45782
   C       -9.98665        -1.13991       -15.00476
   C      -10.42276        -1.66596       -13.76730
   C       -9.63108        -2.48442       -12.96917
   S      -12.04199        -1.15627       -13.39206
   C      -12.10788        -0.25637       -14.88405
   C      -10.97848        -0.33210       -15.62628
  Br      -13.66182         0.70049       -15.32062
   H      -14.76192       -13.54680        -8.99601
   H      -13.54370       -12.46372        -9.84698
   H      -14.18965       -14.34520        -6.52815
   H      -12.33095       -14.10466        -4.76583
   H      -10.41328       -13.62540        -3.56142
   H       -8.11839       -12.80119        -2.73552
   H       -6.03056       -11.37225        -3.58451
   H       -6.88833        -9.29716        -8.43158
   H       -4.53107        -8.41068        -8.31336
   H       -2.34543        -8.45196        -7.05974
   H       -2.64995        -9.57549        -4.22763
   H        1.39148        -9.12018        -2.46164
   H        2.93966        -8.38139        -4.31396
   H        3.17271        -7.83601        -6.68993
   H        0.51232        -7.42483        -8.15154
   H        3.46243        -7.17007        -9.03379
   H        3.75812        -6.34343       -11.46261
   H        2.38146        -5.41771       -13.43226
   H        0.71117        -4.61062       -14.86132
   H       -1.47566        -3.71635       -15.89492
   H       -3.97377        -3.37640       -15.32488
   H       -4.69810        -4.51426       -12.56638
   H       -8.32811        -1.06097       -16.39523
   H      -10.01101        -2.85753       -12.03299
   H      -10.84716         0.16079       -16.57228
*
