# ORCA input file
# SCF done       -210.921536943285          0.000579986782
! CAM-B3LYP def2-SVP def2/J RIJCOSX Grid4 TightSCF
%maxcore 5000
%tddft
    Mode sTDDFT
    Ethresh 5.0
    maxcore 5000
end

%pal
  nprocs 6
  end
* xyz 0 1
   C       -3.63712        -2.43065         1.91225
   C       -3.82645        -2.80077         0.60429
   C       -3.54752        -4.08883         0.09963
   N       -3.34984        -5.11202        -0.38299
   C       -4.29692        -1.99306        -0.45330
   N       -4.65318        -1.43372        -1.39260
   C       -3.08229        -3.30423         2.93933
   C       -2.94110        -2.55947         4.13212
   C       -2.43255        -3.09465         5.29028
   C       -2.04541        -4.43812         5.27154
   C       -2.19434        -5.17914         4.07558
   C       -2.70700        -4.63527         2.90482
   S       -1.65850        -6.82133         4.27100
   C       -1.24597        -6.49219         5.93292
   C       -1.49628        -5.22062         6.32422
  Br       -0.52408        -7.85955         6.99502
   C       -3.41626        -1.17798         3.91601
   O       -3.39732        -0.30608         4.76034
   C       -3.89605        -1.12694         2.51581
   C       -4.53463        -0.12902         1.83070
   C       -4.91061         1.21826         2.11554
   C       -5.62354         1.88639         1.09111
   C       -6.01785         3.18388         1.26468
   C       -5.71784         3.86982         2.46033
   C       -5.01443         3.22821         3.47380
   C       -4.61745         1.92047         3.29915
   C       -6.24305         5.20835         2.36551
   C       -6.86844         5.35740         1.11248
   C       -6.77931         4.07808         0.31512
   C       -6.00916         4.28762        -1.00207
   C       -4.61608         4.86720        -0.78799
   C       -8.17747         3.50895         0.00838
   C       -9.00883         3.27138         1.26339
   C       -7.44489         6.54980         0.76038
   C       -7.41273         7.63779         1.65279
   C       -6.79193         7.46793         2.90220
   C       -6.21176         6.27142         3.26204
   C       -8.01099         8.87099         1.22066
   C       -8.06092        10.03018         1.91802
   C       -8.62048        11.26973         1.48454
   C       -9.25431        11.52434         0.24994
   C       -9.74118        12.84362        -0.11230
   N      -10.31998        13.03613        -1.28778
   C      -10.46706        12.03063        -2.13840
   C      -10.00099        10.73511        -1.77832
   N       -9.41838        10.51525        -0.62515
   C      -10.16822         9.65823        -2.68445
   N      -10.32030         8.81433        -3.44519
   C      -11.07866        12.22785        -3.38783
   N      -11.56520        12.29788        -4.42642
   C       -9.62293        13.96943         0.75707
   C       -9.01773        13.68920         2.01944
   C       -8.53094        12.38197         2.36376
   N       -7.99670        12.35920         3.58302
   S       -8.09944        13.83251         4.23165
   N       -8.82466        14.57091         2.99169
   C      -10.02066        15.27620         0.48869
   C      -10.58752        15.88273        -0.62525
   C      -10.86475        17.26482        -0.66136
   C      -11.39440        17.71166        -1.84333
   C      -11.55836        16.68828        -2.78419
   S      -11.03520        15.14686        -2.14104
   C      -12.05535        16.78617        -4.08571
   C      -12.49395        17.93049        -4.76817
   C      -12.91061        17.67716        -6.04930
   C      -12.81958        16.32496        -6.42524
   S      -12.18751        15.37507        -5.09925
   C      -13.17110        15.80680        -7.66463
   C      -13.10956        14.48920        -8.08122
   S      -12.56550        13.18798        -7.05502
   C      -12.80562        11.99894        -8.27774
   C      -13.29576        12.57797        -9.46514
   C      -13.46747        13.98525        -9.36409
   C      -13.94007        14.69318       -10.46657
   C      -14.21936        14.05302       -11.66314
   C      -14.65862        14.89761       -12.77488
   C      -14.28610        14.78925       -14.04294
   C      -14.08531        12.64242       -11.75417
   C      -14.46591        11.88853       -12.99236
   C      -13.63215        11.93454       -10.66606
   C      -12.51727        10.62040        -8.04609
   C      -12.04987        10.13055        -6.89287
   H       -2.33694        -2.49466         6.18163
   H       -2.80039        -5.24593         2.02304
   H       -1.30266        -4.84761         7.31333
   H       -4.84050        -0.41867         0.83170
   H       -5.84875         1.36125         0.17342
   H       -4.77750         3.74766         4.39010
   H       -4.07255         1.42415         4.08338
   H       -6.58666         4.96006        -1.63951
   H       -5.92734         3.32770        -1.51578
   H       -4.67362         5.83872        -0.30174
   H       -4.11295         4.99053        -1.74412
   H       -4.01477         4.20715        -0.16641
   H       -8.06022         2.56813        -0.53328
   H       -8.70192         4.20834        -0.64559
   H       -8.51781         2.55913         1.92321
   H       -9.98479         2.87402         0.99458
   H       -9.15474         4.20074         1.80968
   H       -7.92413         6.67220        -0.20049
   H       -6.76590         8.29376         3.59586
   H       -5.73704         6.16118         4.22581
   H       -8.44775         8.84917         0.23357
   H       -7.63284        10.08891         2.90991
   H       -9.83037        15.95497         1.31338
   H      -10.66115        17.89767         0.18489
   H      -11.65850        18.73641        -2.03641
   H      -12.49287        18.90536        -4.31514
   H      -13.27775        18.42948        -6.72532
   H      -13.53666        16.52758        -8.38517
   H      -14.07085        15.76357       -10.40368
   H      -15.30130        15.72068       -12.48415
   H      -13.60210        14.03220       -14.38338
   H      -14.63400        15.48437       -14.78822
   H      -13.60793        11.78453       -13.65638
   H      -15.25750        12.39848       -13.53527
   H      -14.80327        10.88770       -12.73113
   H      -13.53904        10.86119       -10.73671
   H      -12.69919         9.95778        -8.88225
   H      -11.85874        10.76742        -6.04431
   H      -11.84476         9.08229        -6.76805
*
