# ORCA input file
# SCF done       -212.234746873909          0.000721751931
! CAM-B3LYP def2-SVP def2/J RIJCOSX Grid4 TightSCF
%maxcore 5000
%tddft
    Mode sTDDFT
    Ethresh 5.0
    maxcore 5000
end

%pal
  nprocs 6
  end
* xyz 0 1
   C      -10.18174         0.70928        -7.76192
   C       -9.18268        -0.19202        -8.02789
   C       -9.35067        -1.34442        -8.82244
   N       -9.42718        -2.29097        -9.46801
   C       -7.86750        -0.12018        -7.52301
   N       -6.78359        -0.14824        -7.14368
   C      -11.56747         0.58976        -8.19506
   C      -12.31479         1.64025        -7.61124
   C      -13.66199         1.80119        -7.82473
   C      -14.30572         0.87615        -8.65291
   C      -13.55097        -0.17026        -9.23432
   C      -12.18768        -0.33049        -9.02054
   S      -14.54223        -1.19778       -10.22568
   C      -15.93751        -0.22263        -9.84734
   C      -15.67727         0.81989        -9.02361
  Br      -17.60601        -0.67166       -10.57776
   C      -11.42848         2.48205        -6.78100
   O      -11.76485         3.47750        -6.17703
   C      -10.07123         1.89629        -6.93144
   C       -8.90058         2.48633        -6.55687
   C       -8.72886         3.59186        -5.66081
   C       -9.57400         3.79671        -4.55718
   C       -9.37661         4.89174        -3.75761
   C       -8.33971         5.80590        -4.02544
   C       -7.46587         5.58389        -5.08452
   C       -7.65571         4.47432        -5.87799
   C       -8.40223         6.86901        -3.05093
   C       -9.47497         6.61163        -2.17749
   C      -10.16600         5.32077        -2.54498
   C      -11.64847         5.55169        -2.89227
   C      -11.84125         6.52329        -4.04985
   C      -10.05708         4.28444        -1.41031
   C       -8.61642         3.99640        -1.00515
   C       -9.77532         7.48859        -1.16755
   C       -9.01283         8.65767        -0.99813
   C       -7.94086         8.89297        -1.87276
   C       -7.63134         8.01371        -2.88861
   C       -9.39784         9.56115         0.05645
   C       -8.78103        10.71623         0.39048
   C       -9.16503        11.64528         1.39709
   S       -8.00338        12.86599         1.83323
   C       -9.08412        13.58944         2.99420
   C      -10.28845        12.88517         3.03219
   C      -10.33504        11.81230         2.13107
   C      -11.55279        10.95403         1.95470
   C      -12.79674        11.55748         2.61306
   C      -13.40960        12.62782         1.71742
   F      -12.54898        13.54006         1.25349
   F      -13.97660        12.07007         0.63005
   F      -14.38823        13.30860         2.33829
   C      -12.45674        12.08534         4.00566
   C      -11.42937        13.21293         3.94534
   C       -8.61909        14.72138         3.69748
   C       -9.35499        15.55112         4.49690
   C       -8.84406        16.64910         5.19761
   C       -9.63713        17.43958         6.00131
   C       -9.26569        18.55743         6.77923
   C      -10.29092        19.11499         7.49065
   C      -11.52876        18.46890         7.31064
   S      -11.35429        17.12736         6.20196
   C      -12.75937        18.75674         7.87675
   C      -13.09673        19.76320         8.80449
   C      -14.41081        19.75540         9.16891
   C      -15.19093        18.74802         8.54916
   S      -14.16953        17.80652         7.47469
   C      -16.52926        18.52416         8.75521
   C      -17.35182        17.54510         8.16067
   C      -17.04958        16.58847         7.18834
   C      -18.21713        15.83264         6.91751
   C      -18.44651        14.79020         6.04846
   C      -19.73867        14.23908         6.01595
   C      -20.27776        13.20313         5.27069
   C      -21.65572        13.03846         5.62709
   C      -21.96373        13.97732         6.59250
   C      -20.79520        14.75495         6.87109
   C      -20.57373        15.79399         7.73194
   C      -19.27544        16.35199         7.76749
   C      -18.74123        17.38566         8.50682
   C      -22.57700        12.06868         5.08622
   C      -22.28958        11.16323         4.15471
   H      -14.20206         2.61415        -7.36513
   H      -11.65630        -1.14052        -9.49128
   H      -16.41979         1.52179        -8.69040
   H       -7.98778         2.12187        -7.01418
   H      -10.34822         3.08194        -4.33283
   H       -6.65314         6.26682        -5.28128
   H       -6.99272         4.28932        -6.71107
   H      -12.15760         5.93233        -2.00383
   H      -12.09992         4.59396        -3.15624
   H      -11.34439         7.47047        -3.84925
   H      -12.90093         6.71485        -4.20064
   H      -11.43816         6.10207        -4.96710
   H      -10.53382         3.35838        -1.73800
   H      -10.60949         4.65647        -0.54469
   H       -8.05206         3.59964        -1.84619
   H       -8.59328         3.26489        -0.20057
   H       -8.12488         4.90342        -0.65989
   H      -10.60230         7.29519        -0.49855
   H       -7.34656         9.78569        -1.75588
   H       -6.80485         8.21783        -3.55305
   H      -10.26113         9.23854         0.61675
   H       -7.87338        10.99367        -0.12907
   H      -11.37332         9.97502         2.40937
   H      -11.73938        10.80232         0.88798
   H      -13.57255        10.78707         2.69357
   H      -12.05425        11.25147         4.58403
   H      -13.35877        12.44098         4.50608
   H      -11.05088        13.39622         4.95345
   H      -11.91471        14.13157         3.60205
   H       -7.57048        14.95340         3.55534
   H      -10.41487        15.38832         4.60590
   H       -7.79209        16.88879         5.12495
   H       -8.25177        18.91714         6.79421
   H      -10.18482        19.96959         8.13509
   H      -12.36729        20.45837         9.18014
   H      -14.84869        20.44616         9.86840
   H      -17.01154        19.18209         9.46852
   H      -16.10421        16.43645         6.70531
   H      -17.66519        14.40446         5.40913
   H      -19.75005        12.61623         4.54161
   H      -22.92008        14.11131         7.06450
   H      -21.35476        16.18525         8.36916
   H      -19.25914        17.98682         9.23333
   H      -23.57798        12.11244         5.49794
   H      -21.31049        11.08213         3.71474
   H      -23.02971        10.46837         3.79731
*
