# ORCA input file
# SCF done       -174.778223514833          0.002965005681
! CAM-B3LYP def2-SVP def2/J RIJCOSX Grid4 TightSCF
%maxcore 5000
%tddft
    Mode sTDDFT
    Ethresh 5.0
    maxcore 5000
end

%pal
  nprocs 6
  end
* xyz 0 1
   C      -14.16077         5.34360        -6.04033
   C      -14.87196         4.20327        -5.77322
   C      -16.23512         4.02683        -6.08087
   N      -17.33936         3.82118        -6.31712
   C      -14.33324         3.07077        -5.13122
   N      -13.94690         2.13045        -4.59698
   C      -14.69131         6.56079        -6.64772
   C      -13.64723         7.51624        -6.75320
   C      -13.84339         8.77405        -7.26903
   C      -15.12898         9.10531        -7.71076
   C      -16.16307         8.14578        -7.60461
   C      -15.96646         6.87511        -7.07435
   S      -17.66881         8.76055        -8.21547
   C      -16.89864        10.27637        -8.60265
   C      -15.58211        10.32294        -8.28847
  Br      -17.90195        11.65280        -9.38948
   C      -12.40955         6.92509        -6.22869
   O      -11.30382         7.44975        -6.15383
   C      -12.76024         5.57567        -5.78142
   C      -11.84165         4.76021        -5.16941
   N      -10.56621         5.14032        -5.04574
   C       -9.58592         4.45899        -4.39846
   S       -9.92731         2.97855        -3.55868
   C       -8.25934         2.86955        -3.10497
   N       -7.87889         1.82882        -2.25414
   O       -6.70975         1.77018        -1.91377
   O       -8.75523         1.05569        -1.90286
   C       -7.49160         3.88412        -3.61163
   C       -8.23789         4.81668        -4.35429
   C       -7.59911         5.97312        -4.94527
   C       -8.07662         7.21803        -5.06781
   C       -7.18903         8.28264        -5.50180
   N       -6.12820         7.98775        -6.29489
   C       -5.30771         8.97106        -6.39127
   C       -3.95114         9.16269        -6.35148
   C       -7.22587         9.53760        -4.94091
   S       -6.05931        10.60517        -5.72138
   N       -4.62435        10.94694        -4.95788
   C       -3.63922        10.22496        -5.47013
   C       -2.31845        10.28165        -4.87109
   C       -2.25412        10.07956        -3.53844
   C       -1.12668         9.67398        -2.77434
   C       -1.30995         8.79979        -1.73629
   C       -0.35469         8.13287        -0.92446
   C       -0.87540         7.15186        -0.13291
   C       -2.27045         6.98238        -0.27062
   S       -2.91630         8.17196        -1.37950
   C       -3.11538         6.01221         0.23608
   C       -2.84929         4.89058         1.05046
   C       -3.93362         4.08959         1.25315
   C       -5.12678         4.52780         0.62169
   S       -4.79834         6.02613        -0.23342
   C       -6.34068         3.89023         0.65649
   C       -7.55763         4.29376         0.06479
   C       -8.76239         3.58549         0.15858
   C       -9.77005         4.29581        -0.54099
   C      -11.10408         4.03247        -0.76452
   C      -11.83719         4.96553        -1.52023
   C      -13.17025         4.99780        -1.90272
   C      -13.41142         6.19570        -2.64873
   C      -12.22180         6.89546        -2.73572
   C      -11.20750         6.16592        -2.04428
   C       -9.87947         6.42508        -1.83525
   C       -9.14314         5.48897        -1.08250
   C       -7.81215         5.47306        -0.71600
   C      -14.66397         6.63131        -3.21616
   C      -15.81797         5.97237        -3.15090
   H      -13.03210         9.48141        -7.33386
   H      -16.78711         6.18070        -7.01123
   H      -14.95495        11.17910        -8.45814
   H      -12.10910         3.79422        -4.76092
   H      -10.34573         6.06043        -5.45859
   H       -6.43609         3.96307        -3.42574
   H       -6.56852         5.81135        -5.23494
   H       -9.05796         7.51796        -4.73190
   H       -3.22739         8.45491        -6.70624
   H       -8.04886         9.96191        -4.40190
   H       -1.44789        10.23725        -5.50814
   H       -3.20246        10.05382        -3.01222
   H       -0.12565         9.93632        -3.08331
   H        0.69025         8.38407        -0.97190
   H       -0.29299         6.53445         0.52829
   H       -1.87044         4.69996         1.45283
   H       -3.91601         3.18537         1.83578
   H       -6.37157         2.95926         1.20862
   H       -8.90250         2.65222         0.67206
   H      -11.57684         3.14093        -0.37978
   H      -13.90595         4.24937        -1.67483
   H      -12.07502         7.83668        -3.23440
   H       -9.39689         7.31356        -2.21735
   H       -7.09370         6.22523        -0.97829
   H      -14.62158         7.58538        -3.73029
   H      -15.91063         5.02294        -2.65198
   H      -16.71466         6.36217        -3.60058
*
