# ORCA input file
# SCF done       -196.369422542923          0.000928202592
! CAM-B3LYP def2-SVP def2/J RIJCOSX Grid4 TightSCF
%maxcore 5000
%tddft
    Mode sTDDFT
    Ethresh 5.0
    maxcore 5000
end

%pal
  nprocs 6
  end
* xyz 0 1
   C       -1.62511         0.20742         0.83006
   C       -1.61227        -0.88693         1.65577
   C       -0.62588        -1.13337         2.63195
   N        0.14834        -1.38347         3.44159
   C       -2.58682        -1.90506         1.62922
   N       -3.35873        -2.75453         1.63900
   C       -0.63708         1.28406         0.82039
   C       -0.99272         2.22733        -0.17879
   C       -0.25491         3.35970        -0.42657
   C        0.88988         3.57393         0.34808
   C        1.23787         2.62798         1.34152
   C        0.49101         1.48197         1.59179
   S        2.68564         3.08808         2.18230
   C        2.80381         4.52531         1.20189
   C        1.81002         4.65588         0.29082
  Br        4.22535         5.71734         1.47554
   C       -2.22341         1.77651        -0.83640
   O       -2.82713         2.33327        -1.75157
   C       -2.60183         0.52023        -0.18635
   C       -3.73586        -0.16617        -0.55591
   N       -4.51279         0.32076        -1.52659
   C       -5.66638        -0.19476        -2.01858
   S       -6.33135        -1.68774        -1.43485
   C       -7.65230        -1.49751        -2.54102
   N       -8.64171        -2.49070        -2.55958
   O       -9.56769        -2.34828        -3.33561
   O       -8.49801        -3.42383        -1.79044
   C       -7.58023        -0.36154        -3.30131
   C       -6.43776         0.41284        -3.01947
   C       -6.07654         1.65657        -3.64554
   C       -6.85239         2.34274        -4.50431
   C       -6.50563         3.59700        -5.13160
   C       -5.20913         4.13400        -5.08833
   C       -4.95518         5.34015        -5.69199
   C       -5.97890         6.04535        -6.34743
   C       -7.26147         5.51970        -6.41093
   C       -7.50884         4.30199        -5.81150
   C       -5.43221         7.28751        -6.84654
   C       -4.06599         7.34528        -6.51604
   C       -3.63776         6.07771        -5.81087
   C       -3.00370         6.35790        -4.44055
   C       -3.94837         7.10712        -3.50763
   C       -2.71444         5.20879        -6.69812
   C       -1.38993         5.84264        -7.10231
   C       -3.33013         8.46428        -6.82494
   C       -3.93896         9.54101        -7.48812
   C       -5.29358         9.45368        -7.83153
   C       -6.04313         8.33997        -7.51287
   C       -3.12880        10.69603        -7.80235
   C       -3.57399        11.91709        -8.14723
   C       -2.67227        12.98174        -8.46313
   N       -3.07091        14.27462        -8.70322
   C       -1.99992        15.06836        -8.98728
   C       -0.87312        14.27771        -8.93697
   C       -1.30216        12.97030        -8.60477
   S        0.12336        11.91840        -8.57014
   O        0.38205        11.42030        -7.24157
   O        0.07451        10.93180        -9.61896
   C        1.24298        13.28440        -9.00079
   C        0.54136        14.42433        -9.14599
   C        2.62918        13.00608        -9.15430
   C        3.65533        13.87762        -9.50217
   C        4.87097        13.13904        -9.56378
   C        6.15750        13.51991        -9.87356
   C        7.15047        12.52910        -9.86092
   C        8.51591        12.58614       -10.13190
   C        9.07421        11.28440        -9.98218
   C        8.05186        10.42136        -9.61626
   C        6.83217        11.15742        -9.52974
   C        5.55022        10.77572        -9.21722
   C        4.55185        11.76667        -9.23332
   C        3.18629        11.70259        -8.98491
   C       10.45300        10.90120       -10.17394
   C       11.44214        11.71582       -10.52984
   H       -0.55058         4.06000        -1.19191
   H        0.79746         0.79271         2.36063
   H        1.72798         5.48058        -0.39328
   H       -4.03760        -1.09419        -0.08801
   H       -4.16287         1.21389        -1.92221
   H       -8.32746        -0.11980        -4.03409
   H       -5.11089         2.06078        -3.38009
   H       -7.83696         1.96584        -4.74599
   H       -4.41433         3.60151        -4.58959
   H       -8.05149         6.05061        -6.92045
   H       -8.50361         3.88141        -5.85243
   H       -2.09984         6.95155        -4.58108
   H       -2.71912         5.40770        -3.98303
   H       -4.23638         8.06194        -3.94210
   H       -3.46231         7.29646        -2.55313
   H       -4.85053         6.52719        -3.32500
   H       -3.26879         4.94953        -7.60416
   H       -2.51609         4.28023        -6.15721
   H       -1.54920         6.71491        -7.72944
   H       -0.80727         5.12135        -7.67174
   H       -0.80616         6.13440        -6.23351
   H       -2.29022         8.55043        -6.54890
   H       -5.75956        10.26728        -8.36601
   H       -7.08937         8.28987        -7.77613
   H       -2.05759        10.55444        -7.73227
   H       -4.62978        12.14777        -8.19038
   H       -4.02735        14.58904        -8.66512
   H       -2.11656        16.11163        -9.20211
   H        0.97769        15.37573        -9.40557
   H        3.55746        14.92922        -9.69790
   H        6.40160        14.54340       -10.12259
   H        9.06058        13.46981       -10.41023
   H        8.15245         9.36779        -9.42789
   H        5.30287         9.75300        -8.97067
   H        2.61372        10.83492        -8.71500
   H       10.65979         9.85125       -10.00676
   H       11.28611        12.76558       -10.71009
   H       12.44855        11.35682       -10.65756
*
