# ORCA input file
# SCF done       -188.999745738048          0.000605224362
! CAM-B3LYP def2-SVP def2/J RIJCOSX Grid4 TightSCF
%maxcore 5000
%tddft
    Mode sTDDFT
    Ethresh 5.0
    maxcore 5000
end

%pal
  nprocs 6
  end
* xyz 0 1
   C       -4.26272         1.50637        -0.84571
   C       -4.99501         0.38180        -0.56011
   C       -4.85310        -0.84824        -1.23890
   N       -4.81290        -1.86771        -1.76426
   C       -5.98036         0.25093         0.43664
   N       -6.77068         0.03617         1.24469
   C       -3.18357         1.56664        -1.82329
   C       -2.66901         2.88604        -1.84801
   C       -1.62549         3.26364        -2.65828
   C       -1.05541         2.28783        -3.48175
   C       -1.57028         0.96957        -3.44571
   C       -2.62811         0.59018        -2.62842
   S       -0.71584        -0.07931        -4.53423
   C        0.30638         1.24777        -5.01737
   C        0.02478         2.41812        -4.39622
  Br        1.64788         0.96563        -6.29590
   C       -3.41068         3.71635        -0.88969
   O       -3.25252         4.91900        -0.72883
   C       -4.37775         2.82067        -0.23342
   C       -5.21929         3.10644         0.81203
   C       -5.33693         4.26759         1.59267
   N       -4.85850         5.51474         1.28886
   C       -5.27352         6.34620         2.25729
   N       -5.97720         5.73971         3.18058
   C       -6.03171         4.43726         2.81890
   C       -6.62341         3.44096         3.66625
   C       -6.08821         2.14349         3.79816
   C       -6.68086         1.14853         4.66354
   N       -6.17721        -0.08028         4.68420
   C       -5.13136        -0.39541         3.94715
   C       -4.48326         0.61851         3.18221
   N       -4.96154         1.83639         3.13348
   C       -3.33703         0.33377         2.39767
   N       -2.45047         0.10877         1.70786
   C       -4.65957        -1.72656         3.93726
   N       -4.24830        -2.79642         3.90782
   C       -7.79667         1.43961         5.49666
   C       -8.28989         2.77200         5.39504
   C       -7.72535         3.74508         4.49225
   N       -8.38642         4.90045         4.53595
   S       -9.56727         4.78969         5.61143
   N       -9.32331         3.26390         6.07143
   C       -8.44693         0.55578         6.36770
   C       -8.26654        -0.78645         6.64338
   C       -9.08421        -1.47781         7.57480
   C       -8.80440        -2.80641         7.70357
   C       -7.74813        -3.22125         6.87016
   S       -7.10821        -1.88352         5.94143
   C       -7.21605        -4.49443         6.71118
   C       -7.57787        -5.68901         7.37085
   C       -6.86601        -6.77596         6.95603
   C       -5.91385        -6.48492         5.95034
   S       -5.94707        -4.78498         5.55329
   C       -5.09720        -7.39125         5.30447
   C       -4.17888        -7.03725         4.31603
   C       -3.45342        -7.88896         3.51582
   C       -3.59833        -9.29331         3.23894
   C       -4.75400       -10.03634         3.31559
   C       -4.83040       -11.40448         2.98851
   N       -4.94746       -12.52428         2.76166
   C       -6.02569        -9.51188         3.62178
   N       -7.09569        -9.14377         3.81873
   C       -2.34906        -9.75180         2.63233
   C       -1.53762        -8.62248         2.35851
   C       -2.21929        -7.40397         2.84590
   O       -1.83451        -6.26096         2.76500
   C       -0.31413        -8.72357         1.74403
   C        0.13585       -10.00100         1.39181
   C       -0.67416       -11.12333         1.68424
   C       -1.91656       -11.02047         2.29962
   S        0.07773       -12.60449         1.17478
   C        1.44899       -11.70738         0.57829
   C        1.35214       -10.36836         0.75318
  Br        2.87958       -12.62470        -0.21513
   H       -1.25616         4.27722        -2.65203
   H       -2.97752        -0.42818        -2.63430
   H        0.55648         3.33501        -4.57392
   H       -5.88514         2.31505         1.11994
   H       -4.24905         5.67658         0.48059
   H       -5.04731         7.39432         2.27126
   H       -9.25916         1.02417         6.91330
   H       -9.86078        -0.96791         8.11778
   H       -9.33137        -3.47630         8.35943
   H       -8.34396        -5.71599         8.12469
   H       -7.00296        -7.77546         7.32820
   H       -5.18086        -8.42495         5.61020
   H       -3.94900        -5.98213         4.19555
   H        0.27698        -7.84501         1.53869
   H       -2.49563       -11.90544         2.50503
   H        2.10547        -9.66643         0.44539
*
