# ORCA input file
# SCF done       -184.926450882314          0.000775968016
! CAM-B3LYP def2-SVP def2/J RIJCOSX Grid4 TightSCF
%maxcore 5000
%tddft
    Mode sTDDFT
    Ethresh 5.0
    maxcore 5000
end

%pal
  nprocs 6
  end
* xyz 0 1
   C       -8.62173         1.35566        -8.65669
   C       -8.02167         0.20984        -8.18063
   C       -6.79532        -0.29482        -8.65426
   N       -5.80154        -0.76232        -8.99293
   C       -8.52348        -0.62308        -7.16206
   N       -8.85013        -1.35529        -6.33779
   C       -8.06991         2.21901        -9.70026
   C       -8.96783         3.29120        -9.92284
   C       -8.72027         4.28827       -10.83285
   C       -7.52479         4.22790       -11.55877
   C       -6.63554         3.15302       -11.33110
   C       -6.88851         2.14136       -10.41129
   S       -5.21605         3.27520       -12.32671
   C       -5.82839         4.75166       -13.02326
   C       -7.03369         5.13341       -12.53928
  Br       -4.81739         5.65007       -14.32377
   C      -10.13194         3.14396        -9.02223
   O      -11.09207         3.88793        -8.95929
   C       -9.86755         1.93006        -8.22829
   C      -10.67047         1.47425        -7.19676
   C      -11.83193         2.08442        -6.74858
   C      -12.49969         1.65459        -5.60890
   C      -13.59509         2.26668        -4.97534
   C      -13.93899         1.69217        -3.77639
   C      -13.13934         0.59344        -3.43445
   S      -11.96052         0.27539        -4.67838
   C      -13.11617        -0.13813        -2.24221
   C      -13.74340         0.14987        -1.02506
   C      -13.32762        -0.65873         0.00731
   C      -12.38608        -1.62829        -0.36415
   S      -12.07041        -1.52044        -2.07884
   C      -11.67714        -2.46300         0.50404
   C      -10.78384        -3.45435         0.16863
   C       -9.89950        -4.07772         1.08435
   C       -9.14263        -5.00828         0.42016
   C       -9.56224        -5.09095        -0.93672
   C      -10.57724        -4.04673        -1.20731
   N       -8.96870        -6.03914        -1.62582
   C       -8.05247        -6.61565        -0.81496
   C       -8.03859        -5.98541         0.57386
   C       -7.26645        -7.65160        -1.26370
   C       -6.13333        -8.17607        -0.64169
   C       -5.36349        -9.25745        -1.09523
   C       -4.20031        -9.45942        -0.39072
   C       -3.99710        -8.52246         0.62971
   S       -5.36325        -7.44596         0.74613
   C       -2.85282        -8.30060         1.39909
   C       -1.67922        -9.06570         1.46771
   C       -0.68438        -8.47683         2.20633
   C       -1.02868        -7.21691         2.72908
   S       -2.68572        -6.83483         2.32944
   C       -0.19525        -6.32464         3.38932
   C       -0.59557        -5.03954         3.72208
   C        0.15048        -3.99242         4.22744
   C        1.46617        -3.90956         4.79325
   C        2.14693        -4.89576         5.47148
   C        3.42560        -4.72255         6.03402
   N        4.47398        -4.64328         6.49692
   C        1.60959        -6.15931         5.78246
   N        1.21205        -7.18938         6.09976
   C        1.89467        -2.51241         4.69708
   C        0.79251        -1.72893         4.27333
   C       -0.36285        -2.61761         4.03140
   O       -1.48437        -2.29871         3.69701
   C        0.87392        -0.36997         4.09945
   C        2.10702         0.24597         4.34323
   C        3.20330        -0.54546         4.75654
   C        3.11766        -1.92141         4.94258
   S        4.63392         0.41431         4.98469
   C        3.74973         1.84698         4.53018
   C        2.45105         1.62063         4.22239
  Br        4.62666         3.50527         4.49866
   H       -9.42285         5.09393       -10.97781
   H       -6.17587         1.34573       -10.27330
   H       -7.55576         6.01732       -12.85744
   H      -10.34911         0.58955        -6.66073
   H      -12.20541         2.95911        -7.26090
   H      -14.08335         3.12580        -5.39949
   H      -14.73812         2.03993        -3.14653
   H      -14.44120         0.95980        -0.91381
   H      -13.67040        -0.56137         1.02241
   H      -11.81858        -2.26011         1.55881
   H       -9.83390        -3.81943         2.12647
   H      -11.50000        -4.43554        -1.63889
   H      -10.17871        -3.31144        -1.91105
   H       -7.08803        -5.48312         0.77045
   H       -8.19136        -6.72684         1.35867
   H       -7.52286        -8.06287        -2.23056
   H       -5.66882        -9.85240        -1.93751
   H       -3.48169       -10.22534        -0.61936
   H       -1.58478       -10.01728         0.97625
   H        0.28834        -8.90592         2.36737
   H        0.81972        -6.64904         3.56174
   H       -1.60512        -4.75383         3.43690
   H        0.01628         0.20126         3.78025
   H        3.98398        -2.48222         5.25196
   H        1.76273         2.38858         3.91971
*
