# ORCA input file
# SCF done       -233.498877166631          0.000865439065
! CAM-B3LYP def2-SVP def2/J RIJCOSX Grid4 TightSCF
%maxcore 5000
%tddft
    Mode sTDDFT
    Ethresh 5.0
    maxcore 5000
end

%pal
  nprocs 6
  end
* xyz 0 1
   C        1.25171        -3.43825        -1.46371
   C        1.84924        -2.27064        -1.08012
   F        3.18355        -2.20140        -0.97255
   C        1.07973        -1.11913        -0.81906
   F        1.70845         0.00879        -0.46343
   C       -0.28186        -1.14958        -0.94113
   C       -0.92661        -2.34014        -1.33116
   C       -0.14915        -3.50447        -1.59771
   C       -0.77376        -4.70901        -1.99789
   C       -2.13631        -4.75082        -2.12150
   C       -2.90607        -3.58204        -1.85336
   C       -2.33181        -2.40397        -1.46868
   C       -4.32525        -3.89508        -2.06011
   O       -5.27824        -3.12800        -1.95507
   C       -4.38702        -5.31428        -2.42290
   C       -3.04277        -5.83721        -2.49499
   C       -2.66424        -7.09676        -2.87855
   C       -3.57348        -8.11024        -3.24417
   N       -4.28749        -8.95439        -3.55244
   C       -1.32404        -7.52421        -2.97288
   N       -0.25085        -7.91889        -3.07059
   C       -5.59286        -5.95044        -2.62198
   N       -6.71941        -5.23667        -2.59297
   C       -8.01478        -5.63901        -2.69959
   S       -8.54878        -7.26569        -2.44001
   C      -10.18755        -6.72106        -2.59564
   N      -11.20694        -7.67752        -2.48093
   O      -12.35476        -7.29175        -2.58663
   O      -10.85778        -8.82627        -2.28037
   C      -10.30825        -5.37359        -2.83165
   C       -9.06285        -4.73967        -2.91577
   C       -8.78183        -3.33811        -3.21153
   C       -7.86801        -3.03421        -4.14246
   C       -7.13055        -1.79789        -4.36787
   C       -5.77089        -2.03746        -4.54435
   C       -4.78062        -1.05184        -4.49970
   C       -5.17608         0.27830        -4.35897
   C       -6.52616         0.56020        -4.29442
   C       -7.52969        -0.45159        -4.30358
   N       -8.76398         0.14132        -4.29565
   C       -8.59417         1.51596        -4.27701
   C       -7.21518         1.81648        -4.25016
   C       -6.76823         3.13067        -4.21238
   C       -7.70629         4.14180        -4.20635
   C       -9.06679         3.84645        -4.23955
   C       -9.52868         2.54445        -4.27440
   C      -10.01350        -0.53986        -4.56395
   C      -11.10624        -0.24263        -3.51675
   C      -10.57349        -0.00523        -2.10748
   C      -10.50436        -0.22251        -5.98626
   C       -9.52847        -0.71402        -7.04862
   C       -3.39874        -1.45863        -4.57756
   C       -2.25867        -0.77633        -4.19131
   C       -2.28224         0.45386        -3.51708
   N       -2.29620         1.42337        -2.90354
   C       -1.06144        -1.52264        -4.41355
   C       -1.34080        -2.77417        -4.93946
   S       -3.01705        -3.05572        -5.19367
   S        0.03600        -3.79518        -5.21151
   C        1.03050        -2.50479        -4.62976
   C        0.34385        -1.35418        -4.24299
   C        1.24403        -0.34361        -3.81871
   C        0.87542         0.91321        -3.31624
   N        0.62047         1.95348        -2.90634
   C        2.57406        -0.74821        -3.88370
   S        2.73283        -2.39357        -4.45011
   C        3.74964        -0.05399        -3.48465
   C        4.00640         1.27583        -3.44517
   C        5.15841         1.75234        -2.61162
   O        6.05142         1.07295        -2.17067
   C        4.92553         3.19677        -2.43148
   C        5.58990         4.08063        -1.63003
   C        5.16082         5.42606        -1.59082
   C        4.04142         5.82858        -2.37724
   C        3.61168         7.16991        -2.32132
   C        4.26475         8.07001        -1.52716
   C        5.37342         7.67172        -0.75258
   C        5.81279         6.37796        -0.78248
   F        5.99424         8.57580         0.01633
   F        3.85741         9.34450        -1.47702
   C        3.37773         4.89342        -3.20306
   C        3.82188         3.59878        -3.23683
   C        3.34811         2.44543        -3.99296
   C        2.61094         2.50604        -5.14380
   C        2.30794         1.38243        -5.93656
   N        2.04572         0.48839        -6.60765
   C        2.12809         3.70806        -5.70425
   N        1.72289         4.65396        -6.21060
   H        1.85719        -4.30853        -1.66432
   H       -0.85528        -0.25485        -0.75424
   H       -0.15457        -5.57014        -2.19023
   H       -2.93789        -1.53305        -1.26877
   H       -5.67256        -7.01293        -2.81355
   H       -6.56497        -4.22060        -2.42772
   H      -11.25921        -4.88904        -2.95877
   H       -9.28487        -2.59624        -2.61165
   H       -7.46031        -3.86822        -4.70523
   H       -5.45126        -3.06354        -4.66339
   H       -4.45623         1.07883        -4.33816
   H       -5.71175         3.34743        -4.18444
   H       -7.38840         5.17257        -4.17574
   H       -9.78230         4.65520        -4.23647
   H      -10.58924         2.35743        -4.29371
   H       -9.78582        -1.60646        -4.53441
   H      -11.79106        -1.09333        -3.50751
   H      -11.68858         0.62711        -3.82295
   H       -9.95308        -0.83146        -1.76882
   H      -11.40475         0.09940        -1.41442
   H       -9.97780         0.90283        -2.06257
   H      -10.64607         0.85296        -6.09761
   H      -11.47208        -0.70749        -6.12632
   H       -8.56302        -0.22310        -6.94519
   H       -9.91361        -0.49723        -8.04150
   H       -9.37845        -1.78879        -6.96589
   H        4.54783        -0.68300        -3.09852
   H        6.42744         3.75743        -1.03088
   H        2.76626         7.49109        -2.90934
   H        6.66152         6.08903        -0.18257
   H        2.52282         5.21554        -3.77541
*
