# ORCA input file
# SCF done       -163.797089990753          0.000919561288
! CAM-B3LYP def2-SVP def2/J RIJCOSX Grid4 TightSCF
%maxcore 5000
%tddft
    Mode sTDDFT
    Ethresh 5.0
    maxcore 5000
end

%pal
  nprocs 6
  end
* xyz 0 1
   C        3.76507        -0.87815        -1.19941
   C        4.37863        -1.71850        -0.35453
   C        5.03716        -1.39742         0.88032
   C        5.48596        -2.47147         1.56218
   C        5.23209        -3.71732         0.91542
   S        4.45860        -3.46189        -0.62976
   C        5.46927        -4.97389         1.41809
   C        5.93802        -5.33898         2.70477
   C        5.92809        -6.67456         2.95272
   C        5.46852        -7.46203         1.86305
   S        5.07781        -6.41432         0.49362
   C        5.29423        -8.81253         1.81352
   N        4.87237        -9.42355         0.66913
   C        4.56433       -10.71591         0.47779
   S        4.64652       -11.87007         1.77331
   C        4.26492       -13.14341         0.64558
   N        4.17032       -14.43370         1.14937
   O        3.90343       -15.33643         0.37050
   O        4.36664       -14.57134         2.35041
   C        4.10299       -12.69719        -0.64052
   C        4.24415       -11.30641        -0.76437
   C        4.16144       -10.61679        -2.02115
   C        3.82668        -9.32157        -2.21110
   C        3.97341        -8.62203        -3.44159
   C        3.75913        -7.26066        -3.61470
   C        3.17616        -6.47644        -2.60840
   N        2.66755        -5.88688        -1.76641
   C        4.17424        -6.80095        -4.89316
   C        4.64950        -7.84644        -5.67574
   S        4.62599        -9.37566        -4.88161
   S        5.25087        -7.38156        -7.23440
   C        4.90921        -5.73454        -6.80919
   C        4.33230        -5.55509        -5.56157
   C        4.12448        -4.17450        -5.27068
   C        3.40966        -3.64986        -4.18360
   N        2.78133        -3.16175        -3.35703
   C        4.60394        -3.36158        -6.28026
   S        5.24523        -4.25794        -7.64135
   N        4.64129        -1.99291        -6.28323
   C        4.97198        -1.23577        -5.18987
   S        5.88783        -1.92047        -3.88288
   C        5.96215        -0.35700        -3.13616
   N        6.60989        -0.26323        -1.90432
   O        6.63256         0.82248        -1.35039
   O        7.11184        -1.28645        -1.46430
   C        5.34546         0.62252        -3.86568
   C        4.74978         0.13810        -5.05002
   C        4.01565         0.98856        -5.94115
   C        3.16125         0.59795        -6.91907
   C        2.47558         1.49000        -7.77128
   C        1.65995         1.07949        -8.78842
   C        0.91516         1.89787        -9.68007
   C        0.19839         1.21244       -10.60618
   C        0.33344        -0.19733       -10.51816
   S        1.40529        -0.61584        -9.19368
   C       -0.24532        -1.15269       -11.31505
   C       -1.13522        -0.94260       -12.40802
   C       -1.54518        -2.07515       -13.01748
   C       -1.00781        -3.28185       -12.45435
   S        0.04879        -2.86651       -11.09448
   C       -1.23064        -4.54128       -12.85071
   H        3.72191         0.17734        -0.99091
   H        3.26779        -1.24170        -2.08147
   H        5.13712        -0.37464         1.19820
   H        5.99259        -2.42285         2.50952
   H        6.24561        -4.59666         3.41908
   H        6.22580        -7.12741         3.88136
   H        5.47190        -9.44038         2.67259
   H        4.83554        -8.82547        -0.15057
   H        3.86714       -13.35971        -1.45366
   H        4.41348       -11.21522        -2.88880
   H        3.42495        -8.71448        -1.40954
   H        4.65436        -1.52383        -7.18106
   H        5.30267         1.64658        -3.54187
   H        4.15383         2.04835        -5.77302
   H        2.93074        -0.44876        -7.06272
   H        2.60558         2.55323        -7.62302
   H        0.93652         2.97026        -9.59666
   H       -0.42174         1.67383       -11.35365
   H       -1.43960         0.04722       -12.69863
   H       -2.21685        -2.11491       -13.85654
   H       -1.87972        -4.74754       -13.68330
   H       -0.77436        -5.37958       -12.35703
*
