# ORCA input file
# SCF done       -186.777146761119          0.000466958372
! CAM-B3LYP def2-SVP def2/J RIJCOSX Grid4 TightSCF
%maxcore 5000
%tddft
    Mode sTDDFT
    Ethresh 5.0
    maxcore 5000
end

%pal
  nprocs 6
  end
* xyz 0 1
   C       -0.56655        -1.04032        -3.73904
   C       -0.65621        -1.56330        -2.51541
   C        0.50467        -2.00176        -1.79225
   C        1.75864        -1.74418        -2.22666
   C        1.96850        -0.93167        -3.49180
   C        0.75649        -0.94567        -4.44990
   N        0.70125         0.19215        -5.33720
   C        1.26879         1.25938        -4.99358
   C        2.04292         1.38396        -3.74295
   N        2.36172         0.38920        -3.04518
   F        2.38690         2.60240        -3.34187
   F        1.19049         2.32421        -5.78349
   C        2.93377        -2.09940        -1.49103
   C        3.02204        -2.85091        -0.33313
   C        4.33861        -3.00006         0.10249
   C        5.26558        -2.34917        -0.72866
   S        4.51396        -1.56111        -2.03988
   C        6.56796        -2.56580        -0.20748
   C        6.46268        -3.35569         0.94875
   C        5.05758        -3.65241         1.18427
   C        4.52972        -4.38757         2.20469
   C        5.33688        -4.97550         3.20113
   N        5.98991        -5.45535         4.01237
   C        3.14202        -4.60848         2.32808
   N        2.01428        -4.78997         2.42968
   C        7.69852        -3.63417         1.53251
   C        8.74222        -3.05971         0.83113
   S        8.18611        -2.15956        -0.57345
   C       10.12693        -3.13683         1.12639
   C       11.17119        -2.53126         0.45268
   C       12.40674        -2.83499         1.02509
   C       12.29964        -3.68175         2.14089
   S       10.68114        -4.09966         2.49002
   C       13.60076        -3.93271         2.64557
   C       14.53049        -3.24065         1.85201
   C       13.81193        -2.52929         0.80610
   C       14.34383        -1.74551        -0.17498
   C       15.73273        -1.52465        -0.28758
   N       16.86126        -1.34523        -0.38186
   C       13.53992        -1.10802        -1.14335
   N       12.88779        -0.59105        -1.93215
   C       15.84793        -3.42646         2.27158
   C       15.92686        -4.25763         3.37352
   S       14.34587        -4.81639         3.90303
   C       17.09431        -4.67119         4.06416
   C       17.17872        -5.54614         5.13111
   C       18.49569        -5.72321         5.55608
   C       19.41823        -4.97351         4.80868
   S       18.66886        -4.05544         3.57988
   C       20.72274        -5.22313         5.31047
   C       20.61869        -6.13005         6.37951
   C       19.22057        -6.47867         6.56694
   C       18.69722        -7.33977         7.48670
   C       19.50829        -8.02721         8.41335
   N       20.16542        -8.59101         9.16539
   C       17.31365        -7.60209         7.56698
   N       16.18915        -7.81751         7.63103
   C       21.85413        -6.43630         6.94770
   C       22.89676        -5.76520         6.33135
   S       22.32984        -4.72918         5.03179
   C       24.29539        -5.88033         6.62490
   C       24.79331        -6.83893         7.43807
   C       26.19691        -6.96567         7.70890
   C       27.07757        -6.04845         7.30570
   C       26.63221        -4.79645         6.60209
   C       25.25840        -4.94234         5.90753
   N       24.59827        -3.67501         5.70138
   C       24.83458        -2.72515         6.49161
   C       25.85150        -2.81555         7.55551
   N       26.68965        -3.74928         7.60261
   F       25.87511        -1.85832         8.47613
   F       24.18945        -1.57564         6.33516
   H       -1.42363        -0.69736        -4.29530
   H       -1.61560        -1.66569        -2.03211
   H        0.34583        -2.52555        -0.86349
   H        2.84320        -1.33313        -4.02462
   H        0.83117        -1.82320        -5.10909
   H        2.17026        -3.27735         0.16254
   H        7.84739        -4.22163         2.42075
   H       11.02281        -1.90322        -0.40742
   H       16.71461        -2.98944         1.80894
   H       16.31727        -6.02303         5.56333
   H       21.98649        -7.10385         7.77846
   H       24.13032        -7.54758         7.90727
   H       26.52130        -7.83284         8.26321
   H       28.12431        -6.10451         7.55243
   H       27.38493        -4.51867         5.85078
   H       25.41077        -5.35935         4.90129
*
