# ORCA input file
# SCF done       -285.964891895914          0.000524935770
! CAM-B3LYP def2-SVP def2/J RIJCOSX Grid4 TightSCF
%maxcore 5000
%tddft
    Mode sTDDFT
    Ethresh 5.0
    maxcore 5000
end

%pal
  nprocs 6
  end
* xyz 0 1
   C        1.08886         3.06328         2.75935
   C        0.12581         4.03159         2.82448
   F       -0.71785         4.05735         3.87146
   C       -0.02239         5.01232         1.83403
   C        0.82613         5.00368         0.76219
   C        1.83759         4.02831         0.64431
   C        1.96975         3.03743         1.66085
   C        2.96910         2.04139         1.55959
   C        3.80669         2.04090         0.47766
   C        3.68554         3.04757        -0.52330
   C        2.72560         4.01589        -0.45441
   C        4.73645         2.85220        -1.53765
   O        4.91819         3.47629        -2.55774
   C        5.58690         1.74408        -1.01366
   C        4.88822         1.13484         0.09734
   C        5.01928        -0.15337         0.54827
   C        5.91899        -1.09009         0.00528
   N        6.62013        -1.89080        -0.42617
   C        4.19848        -0.72333         1.54436
   N        3.55888        -1.23638         2.34698
   C        6.81702         1.55345        -1.56853
   C        7.93094         0.86521        -1.04435
   C        8.19604         0.49745         0.26769
   C        9.41865        -0.14641         0.39673
   C       10.10615        -0.27163        -0.82786
   S        9.25245         0.42453        -2.12290
   C       11.32036        -0.96160        -0.58751
   C       11.39911        -1.27561         0.78030
   C       10.20226        -0.78139         1.44238
   C        9.86089        -0.90761         2.75662
   C       10.69398        -1.55364         3.69405
   N       11.37599        -2.07282         4.45537
   C        8.64505        -0.38969         3.25147
   N        7.65612         0.04209         3.63920
   C       12.56812        -1.95953         1.11404
   C       13.37697        -2.16619         0.01310
   S       12.68368        -1.50861        -1.45935
   C       14.64386        -2.80939        -0.01821
   C       15.44903        -3.01701        -1.10289
   C       16.66434        -3.66921        -0.79102
   C       17.69537        -4.04921        -1.67536
   C       17.64051        -3.70791        -3.08193
   C       17.24668        -2.52851        -3.64767
   C       17.31806        -2.55166        -5.05672
   C       17.75869        -3.73303        -5.58019
   S       18.10531        -4.85392        -4.30906
   C       17.92997        -4.10739        -7.00653
  Cl       16.88530        -1.19402        -6.02457
   C       18.76169        -4.74777        -1.12148
   C       18.85237        -5.05492         0.25896
   C       17.81534        -4.68792         1.14235
   C       16.75385        -3.98318         0.58916
   S       15.35021        -3.42971         1.45977
   C       17.87221        -5.05116         2.54316
   C       18.31281        -6.22599         3.08561
   C       18.25258        -6.22848         4.49463
   C       17.77189        -5.07463         5.04352
   S       17.36980        -3.94748         3.79427
   C       17.56290        -4.74666         6.47610
  Cl       18.76042        -7.57864         5.43445
   C       20.07406        -5.68962         0.57633
   C       20.88336        -5.89591        -0.50559
   S       20.17270        -5.29458        -1.98455
   C       22.15415        -6.54338        -0.49997
   C       22.77522        -7.09733         0.58517
   C       24.01505        -7.70208         0.28543
   C       24.88221        -8.38222         1.16714
   C       24.54286        -8.62395         2.55436
   C       25.37500        -8.63120         3.63819
   C       24.70896        -8.95679         4.83939
   C       23.37624        -9.21537         4.69639
   S       22.91942        -9.04638         3.03706
   C       22.37829        -9.58460         5.73057
  Cl       25.52702        -9.01681         6.35297
   C       26.08364        -8.82971         0.62527
   C       26.42024        -8.67475        -0.74592
   C       25.51912        -8.05163        -1.63952
   C       24.34889        -7.55374        -1.08639
   S       23.09049        -6.72712        -1.96182
   C       25.81364        -7.97981        -3.05364
   C       26.35549        -8.95753        -3.83989
   C       26.52954        -8.54814        -5.17897
   C       26.12713        -7.26711        -5.43043
   S       25.50496        -6.54184        -3.98683
   C       26.16454        -6.51779        -6.71060
  Cl       27.20860        -9.59064        -6.37215
   C       27.69215        -9.19845        -1.04215
   C       28.32229        -9.77563         0.03514
   S       27.34621        -9.65434         1.48725
   C       29.62327       -10.31837         0.12894
   C       30.46937       -10.73337        -0.85677
   C       31.92099       -10.84154        -0.53896
   O       32.42418       -10.81444         0.55483
   C       32.59210       -10.93878        -1.85986
   C       31.62217       -11.02134        -2.87559
   C       30.29519       -11.04704        -2.25554
   C       29.16724       -11.54005        -2.85682
   C       29.10494       -11.95080        -4.20558
   N       28.99644       -12.29403        -5.29475
   C       27.96050       -11.78734        -2.17147
   N       26.96201       -12.02860        -1.65970
   C       31.99233       -11.07746        -4.20771
   C       33.34712       -11.05831        -4.50759
   C       34.32292       -10.99336        -3.51461
   C       33.94040       -10.93161        -2.17215
   F       34.87409       -10.86219        -1.23058
   F       35.61599       -10.98401        -3.84478
   F       33.73026       -11.09894        -5.78470
   H        1.17179         2.32161         3.53831
   H       -0.80094         5.75114         1.93928
   H        0.73196         5.74917        -0.01302
   H        3.05507         1.31056         2.34798
   H        2.64518         4.76474        -1.22803
   H        6.97092         2.06333        -2.51505
   H        7.54120         0.73559         1.08581
   H       12.83450        -2.29539         2.10014
   H       15.16266        -2.73165        -2.09874
   H       16.96186        -1.65665        -3.08842
   H       17.05114        -4.64159        -7.37028
   H       18.79466        -4.75532        -7.13033
   H       18.05969        -3.21196        -7.61034
   H       18.62436        -7.07824         2.51053
   H       16.53980        -4.98014         6.77460
   H       17.73289        -3.68755         6.65501
   H       18.24119        -5.33129         7.09416
   H       20.35663        -5.95680         1.57613
   H       22.35660        -7.06182         1.57199
   H       26.41751        -8.37583         3.60338
   H       22.85098        -9.59459         6.70939
   H       21.96279       -10.57167         5.52848
   H       21.55388        -8.87215         5.74073
   H       26.56184        -9.95387        -3.49543
   H       26.65626        -7.11954        -7.47044
   H       26.70490        -5.57968        -6.59214
   H       25.15453        -6.28222        -7.04500
   H       28.16216        -9.08405        -2.00210
   H       30.05222       -10.34037         1.12661
   H       31.27960       -11.12442        -5.01461
*
