# ORCA input file
# SCF done       -213.730589889958          0.000778916571
! CAM-B3LYP def2-SVP def2/J RIJCOSX Grid4 TightSCF
%maxcore 5000
%tddft
    Mode sTDDFT
    Ethresh 5.0
    maxcore 5000
end

%pal
  nprocs 6
  end
* xyz 0 1
   C       -8.29104         2.61283         4.13095
   C       -9.03588         2.76149         5.29115
   C       -9.27635         1.68334         6.13123
   C       -8.77117         0.42514         5.83940
   C       -8.02353         0.26527         4.68475
   C       -7.78542         1.35922         3.82254
   C       -7.00189         0.90014         2.68430
   C       -6.45798         1.69616         1.71389
   C       -6.58313         3.10283         1.68468
   N       -6.64190         4.24528         1.59539
   C       -5.66352         1.25955         0.63157
   N       -5.00427         0.98820        -0.26839
   C       -6.91564        -0.55709         2.79365
   C       -7.35783        -0.90675         4.13770
   C       -6.99921        -2.01796         4.85126
   C       -6.14001        -3.02379         4.36812
   N       -5.43154        -3.85392         4.01192
   C       -7.38079        -2.25188         6.18977
   N       -7.66077        -2.49814         7.27465
   C       -6.57309        -1.36625         1.74801
   C       -6.79714        -2.74945         1.55604
   C       -7.74123        -3.61031         2.10153
   F       -8.65928        -3.21425         2.98971
   C       -7.69559        -4.90125         1.57836
   C       -6.69317        -5.04677         0.60825
   S       -5.84192        -3.57884         0.33773
   C       -6.65682        -6.34388         0.09040
   C       -7.62954        -7.16760         0.66742
   S       -8.59912        -6.36083         1.86334
   C       -7.61741        -8.46013         0.12790
   F       -8.45936        -9.42544         0.51075
   C       -6.65902        -8.64244        -0.85010
   S       -5.73238        -7.17875        -1.10454
   C       -6.40753        -9.80104        -1.63802
   C       -5.45682        -9.92465        -2.61611
   C       -5.49451       -11.17493        -3.26905
   C       -6.50261       -12.00875        -2.75322
   S       -7.38152       -11.24817        -1.46289
   C       -6.77341       -13.28465        -3.23687
   O       -7.77776       -13.91815        -2.58323
   C       -8.03725       -15.29354        -2.73399
   C       -6.00395       -13.71301        -4.33542
   C       -4.96143       -12.86960        -4.84705
   C       -4.67284       -11.61817        -4.33029
   O       -3.71980       -10.73082        -4.70329
   C       -2.76569       -11.05340        -5.68790
   S       -4.18110       -13.62546        -6.22696
   C       -5.25149       -14.99893        -6.14011
   C       -6.12933       -14.90199        -5.09820
   C       -5.16664       -16.02510        -7.12454
   C       -5.94710       -17.15931        -7.25261
   F       -6.92005       -17.48228        -6.38846
   C       -5.63497       -17.92996        -8.37779
   C       -4.58933       -17.37629        -9.12545
   S       -4.00085       -15.91463        -8.42350
   C       -4.30226       -18.13144       -10.26528
   C       -5.13609       -19.25392       -10.37019
   S       -6.27670       -19.39344        -9.06343
   C       -4.86036       -20.01336       -11.50573
   F       -5.57418       -21.08909       -11.85495
   C       -3.82921       -19.50419       -12.28496
   S       -3.20718       -18.01848       -11.58477
   C       -3.30546       -19.91865       -13.53175
   C       -3.35608       -21.13693       -14.14678
   C       -3.14704       -21.31711       -15.58467
   C       -2.54739       -20.44780       -16.45395
   C       -1.96990       -19.20460       -16.11601
   N       -1.47555       -18.18663       -15.92171
   C       -2.37949       -20.70131       -17.83337
   N       -2.20765       -20.84007       -18.95934
   C       -3.69855       -22.62055       -15.92687
   C       -4.06745       -23.28743       -14.73683
   C       -4.64444       -24.54551       -14.78121
   C       -4.84730       -25.13652       -16.01938
   C       -4.47647       -24.48822       -17.18909
   C       -3.90038       -23.22720       -17.15711
   C       -3.71712       -22.44154       -13.60645
   C       -3.52146       -22.87572       -12.32361
   C       -3.80106       -24.18753       -11.88439
   N       -4.01325       -25.23481       -11.46722
   C       -2.94441       -22.09303       -11.30498
   N       -2.46497       -21.48717       -10.45584
   H       -8.12198         3.45970         3.48668
   H       -9.43792         3.73192         5.53887
   H       -9.86673         1.82256         7.02383
   H       -8.97344        -0.40739         6.49324
   H       -6.10858        -0.89067         0.89375
   H       -4.76097        -9.14691        -2.87288
   H       -8.68657       -15.55209        -1.89757
   H       -7.12214       -15.88798        -2.67593
   H       -8.56776       -15.50321        -3.66739
   H       -2.08778       -10.20119        -5.71554
   H       -3.22299       -11.17883        -6.67267
   H       -2.20189       -11.95254        -5.42711
   H       -6.86097       -15.66284        -4.91715
   H       -2.84930       -19.10964       -14.08774
   H       -4.94599       -25.05344       -13.87972
   H       -5.30247       -26.11366       -16.07114
   H       -4.64244       -24.96797       -18.14146
   H       -3.62685       -22.73596       -18.07620
*
