# ORCA input file
# SCF done       -202.454063657165          0.000865958024
! CAM-B3LYP def2-SVP def2/J RIJCOSX Grid4 TightSCF
%maxcore 5000
%tddft
    Mode sTDDFT
    Ethresh 5.0
    maxcore 5000
end

%pal
  nprocs 6
  end
* xyz 0 1
   C       -2.28301         3.13380         2.05972
   C       -1.76758         3.90377         1.02758
   C       -1.97563         3.55647        -0.29995
   C       -2.71734         2.43368        -0.63509
   C       -3.24167         1.66097         0.38759
   C       -3.01830         2.00280         1.74065
   C       -3.64776         1.00060         2.59046
   C       -3.75156         1.05663         3.95444
   C       -3.26126         2.12142         4.74118
   N       -2.88772         2.95016         5.44171
   C       -4.38841         0.09783         4.77040
   N       -4.89022        -0.63841         5.49492
   C       -4.12526        -0.05946         1.70699
   C       -4.06715         0.46463         0.34579
   C       -4.85399         0.08939        -0.70966
   C       -5.84066        -0.91574        -0.65277
   N       -6.68365        -1.69538        -0.65486
   C       -4.84455         0.73220        -1.96646
   N       -4.88720         1.21393        -3.00664
   C       -4.45252        -1.31929         2.12722
   C       -4.51885        -2.49435         1.34885
   C       -3.92053        -2.77695         0.12709
   C       -4.18348        -4.06945        -0.29956
   C       -4.98837        -4.79520         0.60525
   S       -5.39380        -3.88562         1.98304
   C       -5.20664        -6.08583         0.06695
   C       -4.54472        -6.17944        -1.17086
   C       -3.89016        -4.91024        -1.44717
   C       -3.18011        -4.55896        -2.55712
   C       -2.96099        -5.45358        -3.62590
   N       -2.77755        -6.18455        -4.48955
   C       -2.62598        -3.26813        -2.69270
   N       -2.18194        -2.21463        -2.78118
   C       -4.69682        -7.42508        -1.77648
   C       -5.47026        -8.28041        -1.01136
   S       -6.02125        -7.53079         0.47765
   C       -5.81568        -9.62398        -1.30646
   C       -6.61708       -10.46992        -0.56851
   C       -6.72107       -11.72988        -1.15717
   C       -5.99492       -11.85619        -2.34894
   S       -5.18011       -10.39241        -2.75242
   C       -6.10613       -13.13383        -2.90336
   C       -6.92048       -13.97667        -2.13518
   S       -7.55712       -13.19209        -0.71768
   C       -7.04127       -15.26523        -2.65475
   C       -6.31812       -15.41815        -3.81928
   S       -5.48049       -13.94692        -4.28773
   C       -6.18630       -16.58703        -4.61165
   C       -5.41686       -16.74468        -5.75117
   C       -5.50412       -18.03765        -6.26294
   C       -6.35209       -18.87043        -5.51035
   S       -7.03757       -18.05820        -4.17190
   C       -6.37363       -20.15541        -6.10326
   C       -5.52902       -20.13464        -7.23447
   C       -4.96349       -18.80410        -7.37470
   C       -4.12324       -18.37213        -8.35797
   C       -3.69830       -19.23664        -9.38926
   N       -3.36133       -19.95661       -10.21564
   C       -3.63059       -17.05075        -8.40118
   N       -3.22456       -15.97908        -8.42821
   C       -5.48816       -21.34899        -7.90212
   C       -6.29936       -22.30569        -7.30450
   S       -7.09477       -21.67597        -5.86337
   C       -6.49622       -23.66048        -7.64500
   C       -6.23516       -24.27476        -8.83864
   C       -6.04846       -25.71578        -8.98838
   C       -6.44088       -26.69993        -8.12175
   C       -7.15049       -26.49897        -6.91882
   N       -7.72803       -26.40999        -5.93028
   C       -6.22550       -28.07773        -8.34220
   N       -6.08658       -29.21108        -8.45703
   C       -5.35798       -25.91888       -10.25505
   C       -5.28542       -24.68411       -10.93867
   C       -4.64652       -24.58834       -12.16354
   C       -4.08587       -25.73475       -12.70646
   C       -4.16705       -26.95153       -12.04389
   C       -4.80081       -27.05801       -10.81472
   C       -5.97228       -23.67776       -10.14434
   C       -6.50718       -22.51782       -10.63620
   C       -6.33012       -22.07184       -11.96395
   N       -6.22667       -21.66100       -13.02979
   C       -7.37957       -21.67608        -9.91707
   N       -8.12273       -20.97932        -9.38760
   H       -2.10282         3.41520         3.08405
   H       -1.19001         4.78403         1.26490
   H       -1.55369         4.16553        -1.08449
   H       -2.86351         2.16532        -1.66873
   H       -4.62121        -1.46663         3.18553
   H       -3.28979        -2.07916        -0.39324
   H       -4.27464        -7.71253        -2.72275
   H       -7.09761       -10.18069         0.34816
   H       -7.61974       -16.05354        -2.20887
   H       -4.82701       -15.94859        -6.16900
   H       -4.86757       -21.55412        -8.75541
   H       -6.83352       -24.28460        -6.82813
   H       -4.56751       -23.64551       -12.67990
   H       -3.57729       -25.67627       -13.65642
   H       -3.72512       -27.83095       -12.48663
   H       -4.84548       -28.00958       -10.31126
*
