# ORCA input file
# SCF done       -244.568033081623          0.000736681346
! CAM-B3LYP def2-SVP def2/J RIJCOSX Grid4 TightSCF
%maxcore 5000
%tddft
    Mode sTDDFT
    Ethresh 5.0
    maxcore 5000
end

%pal
  nprocs 6
  end
* xyz 0 1
   C        0.19577        -0.82589         0.81291
   C        1.03074        -1.82746         1.23351
   C        2.10023        -1.63480         2.13459
   N        2.98389        -1.53559         2.85918
   C        0.98650        -3.14812         0.74500
   N        1.00538        -4.22843         0.35679
   C        0.38018         0.59273         1.11541
   C       -0.30868         1.35702         0.15573
   C       -0.27768         2.73671         0.17209
   C        0.44613         3.36791         1.17648
   C        1.11859         2.61331         2.14571
   C        1.09383         1.22278         2.12018
  Cl        1.98997         3.40826         3.39147
  Cl        0.50962         5.08220         1.22994
   C       -1.02565         0.45501        -0.76992
   O       -1.67598         0.74805        -1.74492
   C       -0.82545        -0.91133        -0.21028
   C       -1.62277        -1.92348        -0.65643
   C       -1.89446        -3.16600        -0.04764
   C       -1.72012        -3.54320         1.27714
   C       -2.12832        -4.84812         1.51063
   C       -2.62736        -5.48454         0.35482
   S       -2.61293        -4.46054        -1.00262
   C       -2.98354        -6.81274         0.69746
   C       -2.71007        -7.01524         2.06181
   C       -2.15313        -5.79138         2.61495
   C       -1.70609        -5.57451         3.88487
   C       -1.76330        -6.56738         4.88564
   N       -1.81734        -7.37697         5.69534
   C       -1.15510        -4.33192         4.26431
   N       -0.71258        -3.31475         4.55448
   C       -3.02351        -8.30321         2.49322
   C       -3.52903        -9.08184         1.46922
   S       -3.62197        -8.21074        -0.05053
   C       -3.94324       -10.43848         1.55336
   C       -4.37976       -11.25001         0.54323
   C       -4.69939       -12.56031         0.96735
   C       -5.17189       -13.63852         0.18777
   C       -5.49662       -13.50120        -1.21664
   C       -5.31381       -14.41276        -2.21756
   C       -5.81484       -13.96974        -3.46057
   C       -6.39360       -12.73407        -3.42967
   S       -6.31261       -12.08473        -1.82786
   C       -7.02378       -11.97120        -4.53578
  Cl       -5.69855       -14.92474        -4.88824
   C       -5.33352       -14.85224         0.84864
   C       -5.10644       -15.01942         2.23768
   C       -4.69298       -13.92667         3.02764
   C       -4.46563       -12.73247         2.35567
   S       -3.90543       -11.26146         3.09745
   C       -4.53759       -14.05693         4.46104
   C       -5.35648       -14.71459         5.33525
   C       -4.90515       -14.63476         6.66997
   C       -3.74632       -13.93001         6.83075
   S       -3.19419       -13.33381         5.30305
   C       -2.98792       -13.65984         8.07698
  Cl       -5.75800       -15.37045         7.97226
   C       -5.31899       -16.35211         2.65636
   C       -5.72447       -17.18535         1.64966
   S       -5.86054       -16.34475         0.11954
   C       -5.98994       -18.57957         1.74903
   C       -5.98474       -19.34094         2.90549
   C       -6.25379       -20.68258         2.64601
   C       -6.46729       -20.94489         1.28071
   S       -6.34322       -19.53342         0.32327
   C       -6.70485       -22.33043         1.11942
   C       -6.63982       -22.94845         2.39057
   C       -6.37794       -21.92701         3.39061
   C       -6.28719       -22.08384         4.74168
   C       -6.47888       -23.32402         5.38953
   N       -6.65119       -24.31105         5.94546
   C       -6.01529       -20.99381         5.59653
   N       -5.79160       -20.10538         6.28605
   C       -6.80881       -24.32395         2.34001
   C       -7.00849       -24.78121         1.04246
   S       -7.00754       -23.44575        -0.12421
   C       -7.23736       -26.06383         0.51055
   C       -7.10025       -27.30292         1.07798
   C       -7.44930       -28.54441         0.40644
   C       -8.19944       -28.68536        -0.73147
   C       -8.51146       -29.92930        -1.32197
   N       -8.79362       -30.90375        -1.85829
   C       -8.79808       -27.63530        -1.46061
   N       -9.33297       -26.84354        -2.09783
   C       -6.92277       -29.64584         1.20759
   C       -6.33797       -29.11802         2.37036
   C       -6.44005       -27.64369         2.36074
   O       -6.01587       -26.89983         3.21745
   C       -5.76167       -29.92462         3.33013
   C       -5.76490       -31.29822         3.12275
   C       -6.33878       -31.83398         1.96343
   C       -6.92137       -31.01609         1.00141
  Cl       -6.32638       -33.53228         1.71365
  Cl       -5.05997       -32.33901         4.29098
   H       -0.80254         3.30866        -0.57660
   H        1.61507         0.67044         2.88512
   H       -2.16875        -1.70416        -1.56896
   H       -1.35537        -2.87185         2.03278
   H       -2.89373        -8.67433         3.49400
   H       -4.44710       -10.91311        -0.47502
   H       -4.80675       -15.35174        -2.09719
   H       -6.92110       -12.52429        -5.46590
   H       -6.55226       -10.99563        -4.64788
   H       -8.08306       -11.81008        -4.33643
   H       -6.27429       -15.19751         5.05474
   H       -3.55556       -14.01157         8.93474
   H       -2.79764       -12.59330         8.18603
   H       -2.02565       -14.17155         8.05913
   H       -5.14086       -16.68667         3.66065
   H       -5.79323       -18.93083         3.87915
   H       -6.77956       -24.98278         3.18832
   H       -7.54680       -26.04524        -0.52814
   H       -5.32289       -29.49504         4.21686
   H       -7.34974       -31.46609         0.12108
*
