# ORCA input file
# SCF done       -168.815779736265          0.000425263589
! CAM-B3LYP def2-SVP def2/J RIJCOSX Grid4 TightSCF
%maxcore 5000
%tddft
    Mode sTDDFT
    Ethresh 5.0
    maxcore 5000
end

%pal
  nprocs 6
  end
* xyz 0 1
   C       -4.70254         0.98560        -7.21230
   C       -3.35294         0.85077        -7.09827
   C       -2.84381         1.64887        -6.05519
   C       -3.84577         2.37656        -5.40171
   S       -5.39258         2.08315        -6.06017
   C       -3.24617         3.15114        -4.36853
   C       -1.86732         2.90575        -4.37416
   C       -1.56692         1.95522        -5.43926
   C       -0.33969         1.46859        -5.78358
   C        0.84176         1.84769        -5.11237
   N        1.81208         2.14672        -4.57909
   C       -0.16567         0.55308        -6.84259
   N       -0.01767        -0.19145        -7.70227
   C       -1.17694         3.62380        -3.39671
   C       -2.02509         4.41646        -2.64383
   S       -3.69980         4.26949        -3.16075
   C       -1.70738         5.29213        -1.57506
   C       -0.52207         5.42202        -0.86657
   C       -0.56975         6.43498         0.11618
   O        0.43527         6.80203         0.94968
   C        1.72866         6.33451         0.62623
   C        1.75960         4.83000         0.42747
   S        0.88253         4.39697        -1.11103
   C       -1.80158         7.07398         0.18217
   S       -2.90111         6.41729        -0.99115
   C       -2.18208         8.14153         1.03470
   C       -1.42354         8.75919         2.01275
   C       -2.11611         9.80456         2.62351
   C       -3.41283         9.98076         2.11261
   S       -3.78059         8.85677         0.87936
   C       -4.01815        11.07191         2.78301
   C       -3.10480        11.58875         3.71747
   C       -1.88092        10.80553         3.65252
   C       -0.74841        10.97262         4.39443
   C       -0.62787        11.97890         5.37603
   N       -0.51652        12.79120         6.17790
   C        0.38500        10.14884         4.23040
   N        1.31290         9.48686         4.10255
   C       -3.59775        12.69206         4.41435
   C       -4.88432        13.01958         4.02281
   S       -5.48827        11.93939         2.76919
   C       -5.71781        14.07323         4.47174
   C       -5.51112        15.00199         5.48197
   C       -6.56638        15.93253         5.60617
   O       -6.63661        16.96360         6.48529
   C       -5.43263        17.32799         7.12801
   C       -4.76558        16.14385         7.80373
   S       -4.10987        15.00518         6.54015
   C       -7.60395        15.70500         4.71145
   S       -7.25454        14.34015         3.69649
   C       -8.81044        16.43867         4.56979
   C       -9.22057        17.54719         5.28772
   C      -10.46531        18.00985         4.85853
   C      -11.00730        17.24910         3.81513
   S       -9.98405        15.96146         3.35323
   C      -12.26952        17.80533         3.46153
   C      -12.51659        18.91382         4.28075
   C      -11.39564        19.08521         5.18426
   C      -11.23149        20.04889         6.13676
   C      -12.19833        21.04948         6.36749
   N      -12.98124        21.86549         6.55881
   C      -10.08296        20.11351         6.95251
   N       -9.15166        20.17610         7.61934
   C      -13.75217        19.52779         3.99589
   C      -14.40419        18.88624         2.98827
   S      -13.53877        17.52154         2.35706
   H       -5.35502         0.50316        -7.91203
   H       -2.76111         0.21341        -7.72942
   H       -0.11402         3.59038        -3.25043
   H        2.34877         6.62665         1.47745
   H        2.09627         6.83801        -0.27814
   H        1.27798         4.31769         1.26085
   H        2.77800         4.46913         0.30501
   H       -0.42298         8.45205         2.24847
   H       -3.04877        13.23784         5.15788
   H       -5.72843        18.07937         7.86440
   H       -4.74195        17.78310         6.40513
   H       -5.47659        15.60111         8.42727
   H       -3.91083        16.45772         8.39815
   H       -8.63133        17.97755         6.07426
   H      -14.14001        20.39230         4.50291
   H      -15.35737        19.12738         2.56244
*
