# ORCA input file
# SCF done       -226.124824794168          0.000503702434
! CAM-B3LYP def2-SVP def2/J RIJCOSX Grid4 TightSCF
%maxcore 5000
%tddft
    Mode sTDDFT
    Ethresh 5.0
    maxcore 5000
end

%pal
  nprocs 6
  end
* xyz 0 1
   C       -3.59706         3.83595        -5.04851
   C       -4.66866         4.32972        -4.34933
   C       -5.84705         4.80855        -4.95184
   N       -6.81653         5.23754        -5.39425
   C       -4.74196         4.31950        -2.94072
   N       -4.86806         4.25922        -1.80115
   C       -3.60207         3.49405        -6.46655
   C       -2.57045         2.53818        -6.70076
   C       -2.36822         1.99248        -7.93497
   C       -3.19457         2.39275        -9.01002
   C       -4.21568         3.36023        -8.78483
   C       -4.40776         3.90355        -7.49342
   C       -5.02845         3.75377        -9.86707
   C       -4.84673         3.21588       -11.11193
   C       -3.84202         2.26232       -11.33263
   C       -3.03382         1.85998       -10.30418
   C       -1.82949         2.30216        -5.44546
   O       -0.92399         1.52231        -5.25025
   C       -2.38854         3.28264        -4.47774
   C       -1.68658         3.60135        -3.35366
   C       -1.77711         4.76029        -2.55250
   C       -1.24730         4.92931        -1.28472
   C       -1.46876         6.19083        -0.73344
   C       -1.09712         6.54803         0.64626
   C        0.23892         6.78182         0.98236
   C        0.56881         7.09622         2.29656
   C       -0.42907         7.16234         3.25205
   C       -1.75296         6.92071         2.93590
   C       -2.09665         6.61524         1.62383
   O       -3.35928         6.37116         1.18297
   C       -4.37179         6.13398         2.13362
   O        1.12539         6.68645        -0.04802
   C        2.48952         6.90450         0.21904
   C       -2.13777         7.04075        -1.60663
   S       -2.50729         6.24558        -3.09972
   C       -2.53515         8.38874        -1.41511
   C       -2.18152         9.27106        -0.41532
   C       -2.80234        10.52242        -0.52054
   C       -2.51440        11.62580         0.40970
   C       -1.86717        12.76521        -0.10942
   C       -1.45240        13.78043         0.73702
   C       -1.65977        13.66066         2.10245
   C       -2.31031        12.56553         2.62262
   C       -2.76076        11.54699         1.78106
   O       -3.43122        10.53324         2.40137
   C       -4.48477         9.88100         1.72465
   O       -1.68230        12.76113        -1.45898
   C       -1.18076        13.92548        -2.07189
   C       -3.63878        10.61354        -1.62466
   S       -3.64431         9.13059        -2.53166
   C       -4.47979        11.67858        -2.03117
   C       -5.15676        11.76768        -3.23251
   C       -5.96754        12.89575        -3.35575
   C       -6.70743        13.21388        -4.57448
   C       -6.65093        14.49504        -5.14360
   C       -7.45141        14.80385        -6.23463
   C       -8.29569        13.83986        -6.75790
   C       -8.33161        12.56139        -6.24085
   C       -7.52955        12.23008        -5.15142
   O       -7.48566        11.00543        -4.58225
   C       -8.41455        10.02868        -4.99115
   O       -5.76913        15.36536        -4.57122
   C       -5.65714        16.66404        -5.09826
   C       -5.94274        13.69303        -2.20436
   S       -4.83091        13.03828        -1.01943
   C       -6.57092        14.90912        -1.89851
   C       -7.74356        15.40422        -2.41651
   C       -8.16876        16.77996        -2.35328
   C       -7.38232        17.85561        -2.01225
   C       -7.83073        19.19006        -2.01195
   N       -8.13964        20.29668        -1.99108
   C       -6.01461        17.77938        -1.68460
   N       -4.88928        17.81038        -1.45132
   C       -9.53310        16.85539        -2.86688
   C       -9.92883        15.55026        -3.27431
   C       -8.84105        14.59559        -2.98567
   O       -8.90099        13.38690        -3.09181
   C      -11.15197        15.30684        -3.82477
   C      -12.05606        16.38009        -3.99778
   C      -11.67251        17.68689        -3.58218
   C      -10.39573        17.90787        -3.01372
   C      -12.58536        18.74743        -3.74991
   C      -13.81824        18.53042        -4.30293
   C      -14.19449        17.24328        -4.71295
   C      -13.33134        16.19146        -4.56446
   H       -1.58811         1.26237        -8.09186
   H       -5.18251         4.64042        -7.34822
   H       -5.80267         4.48621        -9.69093
   H       -5.47695         3.52168       -11.93375
   H       -3.71165         1.84816       -12.32133
   H       -2.25833         1.12604       -10.46852
   H       -0.89314         2.90894        -3.08870
   H       -0.75069         4.13523        -0.75601
   H        1.58979         7.28824         2.58257
   H       -0.16695         7.40823         4.26986
   H       -2.50425         6.98087         3.70552
   H       -4.59750         7.02933         2.72059
   H       -4.09842         5.31643         2.80729
   H       -5.24805         5.84841         1.55425
   H        2.87813         6.18300         0.94468
   H        2.67106         7.92094         0.58256
   H        2.99934         6.76697        -0.73314
   H       -1.48465         9.02851         0.36613
   H       -0.96037        14.65722         0.35044
   H       -1.32211        14.44721         2.75959
   H       -2.49838        12.47152         3.67967
   H       -5.18742         9.56884         2.49936
   H       -4.13504         9.00101         1.17846
   H       -4.99551        10.55698         1.03488
   H       -1.19696        13.72130        -3.14148
   H       -0.15276        14.13484        -1.76015
   H       -1.81306        14.79256        -1.85918
   H       -5.04523        11.03217        -4.00846
   H       -7.43022        15.78577        -6.67821
   H       -8.93034        14.09362        -7.59383
   H       -8.98904        11.83051        -6.68178
   H       -8.22535         9.16303        -4.35842
   H       -8.26786         9.74444        -6.03815
   H       -9.44166        10.37207        -4.84167
   H       -5.30180        16.65006        -6.13346
   H       -4.92489        17.17009        -4.47043
   H       -6.60811        17.20568        -5.04965
   H       -6.06036        15.51003        -1.15384
   H      -11.42640        14.30755        -4.12855
   H      -10.13686        18.90765        -2.70231
   H      -12.29048        19.73730        -3.43339
   H      -14.51027        19.34998        -4.42712
   H      -15.17163        17.08863        -5.14602
   H      -13.61602        15.19720        -4.87701
*
