# ORCA input file
# SCF done       -236.129040165883          0.000895932383
! CAM-B3LYP def2-SVP def2/J RIJCOSX Grid4 TightSCF
%maxcore 5000
%tddft
    Mode sTDDFT
    Ethresh 5.0
    maxcore 5000
end

%pal
  nprocs 6
  end
* xyz 0 1
   C        4.80163        12.90064         5.01023
   C        3.66609        12.15168         5.17109
   C        2.78378        12.28859         6.26097
   N        2.02361        12.38622         7.11580
   C        3.29758        11.10660         4.30035
   N        2.97561        10.21474         3.65318
   C        5.37320        13.79854         6.00767
   C        6.75468        13.98449         5.70830
   C        7.56202        14.75126         6.49752
   C        7.01198        15.38939         7.63216
   C        5.62772        15.22257         7.92590
   C        4.81711        14.41327         7.09693
   C        5.09026        15.87405         9.05460
   C        5.88057        16.65016         9.85772
   C        7.24393        16.81165         9.56926
   C        7.79740        16.19426         8.48069
   C        7.08629        13.25892         4.46809
   O        8.16841        13.13889         3.94033
   C        5.78268        12.74899         3.95323
   C        5.68878        12.35761         2.65853
   C        4.52641        12.19656         1.82929
   C        3.33899        12.90911         2.06897
   C        2.27784        12.75847         1.21443
   C        2.36918        11.89984         0.10265
   C        3.53841        11.19375        -0.14655
   C        4.60837        11.35968         0.70653
   C        1.12661        11.96781        -0.63188
   C        0.26261        12.85823         0.03094
   C        0.92227        13.42166         1.26683
   C        0.15389        13.02153         2.54186
   C       -0.07174        11.51881         2.65467
   C        1.03725        14.95544         1.19382
   C        1.78706        15.43456        -0.04361
   C       -0.98869        13.12523        -0.46490
   C       -1.40358        12.51177        -1.65784
   C       -0.52459        11.63680        -2.31443
   C        0.72696        11.35203        -1.81039
   C       -2.69221        12.77196        -2.24737
   C       -3.72991        13.37778        -1.63262
   C       -4.99134        13.62671        -2.23881
   S       -5.35876        13.01727        -3.81907
   C       -6.99942        13.55225        -3.75952
   C       -7.27332        14.15418        -2.53272
   C       -6.11401        14.25723        -1.68977
   C       -6.22006        14.91449        -0.43139
   C       -5.05395        15.33183         0.39203
   O       -4.96671        15.17064         1.57665
   O       -4.09322        16.01386        -0.27884
   C       -7.46365        15.27147         0.02579
   C       -8.61637        15.05723        -0.74163
   C       -8.54290        14.53297        -2.00771
   O       -9.64826        14.32338        -2.75928
   C       -7.80463        13.37797        -4.94803
   C       -7.61286        12.23403        -5.73623
   C       -8.29368        12.10239        -6.92141
   C       -9.22152        13.08472        -7.31395
   C       -9.41195        14.22284        -6.54338
   C       -8.68759        14.37364        -5.37857
   C       -9.84121        12.66570        -8.55054
   C       -9.28557        11.43073        -8.93238
   C       -8.21977        10.99670        -7.94826
   C       -6.87096        11.00594        -8.70717
   C       -5.62398        10.80806        -7.85543
   C       -8.51940         9.61761        -7.34234
   C       -9.89257         9.56067        -6.68264
   C       -9.68488        10.80825       -10.08693
   C      -10.67137        11.40680       -10.89150
   C      -11.23592        12.62620       -10.47973
   C      -10.82781        13.26094        -9.32636
   C      -11.10546        10.83130       -12.13298
   C      -10.56237         9.75208       -12.75110
   C      -11.03354         9.30022       -14.00422
   C      -10.49802         8.25838       -14.71003
   C      -10.92532         7.78275       -16.01194
   C      -11.97542         8.25075       -16.76079
   C      -12.33782         7.73835       -18.02382
   N      -12.68451         7.37680       -19.05728
   C      -12.84941         9.29533       -16.39660
   N      -13.60938        10.12905       -16.17848
   C      -10.03376         6.69523       -16.40322
   C       -9.08837         6.48404       -15.36000
   C       -9.34343         7.43833       -14.26666
   O       -8.72226         7.52137       -13.22543
   C       -8.12021         5.52598       -15.44472
   C       -8.04774         4.71956       -16.60253
   C       -8.98756         4.92573       -17.65281
   C       -9.98152         5.92436       -17.53443
   C       -8.90449         4.11888       -18.80585
   C       -7.94041         3.15438       -18.91766
   C       -7.01596         2.95170       -17.88220
   C       -7.06871         3.71753       -16.74925
   H        8.60828        14.87214         6.25887
   H        3.77034        14.30836         7.33728
   H        4.04068        15.74425         9.27442
   H        5.45946        17.14407        10.72061
   H        7.85319        17.42774        10.21359
   H        8.84657        16.31487         8.25329
   H        6.64462        12.21698         2.16143
   H        3.28604        13.60315         2.89534
   H        3.61393        10.53504        -0.99841
   H        5.52717        10.82010         0.52913
   H       -0.81075        13.53335         2.54129
   H        0.71445        13.37068         3.41227
   H       -0.66674        11.15535         1.81978
   H       -0.60075        11.29366         3.57769
   H        0.87393        10.98101         2.66430
   H        1.54948        15.31150         2.09029
   H        0.03180        15.38047         1.19483
   H        2.80084        15.03951        -0.05843
   H        1.84091        16.52075        -0.05076
   H        1.27966        15.10937        -0.94922
   H       -1.63728        13.82064         0.04475
   H       -0.84848        11.17137        -3.23459
   H        1.38479        10.66973        -2.32757
   H       -2.82205        12.43732        -3.27026
   H       -3.64055        13.66103        -0.59500
   H       -4.27773        16.06791        -1.22572
   H       -7.54916        15.74225         0.99272
   H       -9.58020        15.32497        -0.33131
   H      -10.43647        14.56534        -2.25608
   H       -6.94084        11.46459        -5.38669
   H      -10.10419        14.98972        -6.85682
   H       -8.78947        15.27610        -4.79811
   H       -6.78759        11.96241        -9.23044
   H       -6.91365        10.21984        -9.46393
   H       -5.48572        11.63708        -7.16657
   H       -4.75222        10.76091        -8.50457
   H       -5.67134         9.88128        -7.29006
   H       -7.75781         9.38116        -6.59832
   H       -8.46347         8.86619        -8.13238
   H       -9.96459        10.29480        -5.88283
   H      -10.06450         8.57338        -6.26024
   H      -10.67749         9.76572        -7.40740
   H       -9.25408         9.86282       -10.37591
   H      -11.99958        13.07834       -11.09628
   H      -11.26577        14.20329        -9.03344
   H      -11.92675        11.34058       -12.62550
   H       -9.73356         9.21744       -12.31517
   H      -11.86882         9.84251       -14.42890
   H       -7.41565         5.38653       -14.63808
   H      -10.67664         6.05423       -18.34843
   H       -9.61868         4.27872       -19.60036
   H       -7.88473         2.54193       -19.80519
   H       -6.26183         2.18593       -17.98685
   H       -6.35936         3.56625       -15.94857
*
