# ORCA input file
# SCF done       -175.896234975171          0.000834705790
! CAM-B3LYP def2-SVP def2/J RIJCOSX Grid4 TightSCF
%maxcore 5000
%tddft
    Mode sTDDFT
    Ethresh 5.0
    maxcore 5000
end

%pal
  nprocs 6
  end
* xyz 0 1
   C        1.33940         0.56372         7.53888
   N        0.78712        -0.41005         6.86987
   N        1.36919        -1.54191         6.63609
   C        2.61998        -1.79846         6.97280
   C        3.35877        -0.77809         7.63349
   C        2.67091         0.42947         7.98223
   N        3.46496         1.28368         8.62923
   S        4.92201         0.62766         8.75632
   N        4.63880        -0.75363         7.99608
   C        3.19644        -3.08967         6.71476
   C        3.89556        -3.87433         7.61296
   N        4.15391        -3.60286         8.96898
   O        4.99831        -4.28174         9.52438
   O        3.51235        -2.72224         9.52025
   C        4.25055        -5.11749         6.98083
   C        3.70886        -5.13370         5.73750
   C        3.03501        -3.88506         5.50385
   C        2.40893        -3.46740         4.34363
   C        2.29901        -2.12995         3.86625
   C        1.82898        -2.16216         2.58810
   C        1.57232        -3.51808         2.20638
   N        1.03393        -3.79207         0.94004
   O        0.61523        -2.84389         0.29760
   O        1.01745        -4.94254         0.52177
   C        1.88225        -4.36074         3.28738
   C        1.59615        -5.70163         3.58687
   C        1.24353        -6.71326         2.72511
   C        0.94189        -8.00181         3.18448
   N        0.61659        -9.04963         2.35302
   C        0.48102        -8.99185         0.91418
   C       -0.82933        -8.33718         0.48837
   C        0.37064       -10.22733         3.05863
   O        0.07169       -11.28727         2.53908
   C        0.56884        -9.86575         4.45095
   C        0.91519        -8.50710         4.50125
   C        1.11956        -8.14910         5.89274
   O        1.43711        -7.10628         6.42723
   N        0.87982        -9.33941         6.59791
   C        0.93235        -9.37849         8.03993
   C       -0.46149        -9.32284         8.65973
   C        0.54564       -10.37770         5.76292
   C        0.26528       -11.68562         6.18565
   C       -0.04522       -12.67453         5.28855
   C       -0.32383       -14.00452         5.61116
   S       -0.34408       -14.61464         7.23901
   C       -0.73746       -16.21104         6.72641
   C       -0.85282       -16.29143         5.32560
   C       -0.61820       -15.03661         4.68925
   C       -0.68551       -14.93035         3.29315
   C       -0.97950       -16.05416         2.55081
   C       -1.04709       -15.97305         1.13955
   N       -1.09977       -15.89994        -0.00228
   C       -1.21574       -17.30896         3.18812
   C       -1.51522       -18.43805         2.38796
   N       -1.75379       -19.35655         1.74693
   C       -1.15452       -17.42876         4.55849
   C       -0.90074       -17.25008         7.68727
   N       -1.21435       -18.47501         7.28474
   N       -1.37894       -19.47068         8.11139
   C       -1.24760       -19.35060         9.40553
   C       -0.91306       -18.10505         9.97675
   C       -0.73238       -17.00338         9.08069
   N       -0.42021       -15.87804         9.71301
   S       -0.36070       -16.18668        11.29658
   N       -0.72514       -17.74635        11.24694
   H        0.75198         1.45104         7.71185
   H        4.83385        -5.87968         7.46025
   H        3.84301        -5.89870         4.99839
   H        2.63593        -1.25704         4.38813
   H        1.67008        -1.32815         1.93037
   H        1.65435        -5.94625         4.63948
   H        1.20850        -6.52802         1.66331
   H        0.50596       -10.02885         0.56833
   H        1.33246        -8.45431         0.49031
   H       -1.67318        -8.85826         0.93464
   H       -0.92223        -8.38743        -0.59233
   H       -0.85986        -7.29280         0.78700
   H        1.50491        -8.49873         8.34613
   H        1.46646       -10.27729         8.35997
   H       -0.96049        -8.40187         8.36881
   H       -0.38227        -9.34624         9.74280
   H       -1.06889       -10.16436         8.33387
   H        0.30532       -11.91610         7.24112
   H       -0.07744       -12.41987         4.23742
   H       -0.50984       -13.98739         2.79801
   H       -1.33065       -18.37121         5.05231
   H       -1.40501       -20.23574        10.00096
*
