# ORCA input file
# SCF done       -219.500093597298          0.000535148949
! CAM-B3LYP def2-SVP def2/J RIJCOSX Grid4 TightSCF
%maxcore 5000
%tddft
    Mode sTDDFT
    Ethresh 5.0
    maxcore 5000
end

%pal
  nprocs 6
  end
* xyz 0 1
   C        1.91773         3.19178        -1.96915
   C        1.21257         3.81826        -2.95720
   C        1.77585         4.20727        -4.19100
   N        2.19574         4.55623        -5.19975
   C       -0.17257         4.07388        -2.88630
   N       -1.30525         4.25617        -2.90424
   C        3.27391         2.67371        -2.07720
   C        3.47491         1.70578        -1.04814
   C        4.65412         1.02757        -0.92447
   C        5.70516         1.30303        -1.82713
   C        5.51979         2.29171        -2.83817
   C        4.28544         2.96950        -2.95191
   C        6.58564         2.57488        -3.71653
   C        7.77458         1.90612        -3.61033
   C        7.95332         0.92652        -2.62151
   C        6.94174         0.63229        -1.74800
   C        2.27618         1.63303        -0.19555
   O        2.07155         0.91821         0.75458
   C        1.38996         2.73355        -0.69217
   C        0.44215         3.25766         0.11993
   C       -0.26575         4.48814        -0.04419
   C       -1.62022         4.65221         0.16140
   N       -2.53140         3.68016         0.62588
   O       -3.66627         4.05110         0.85683
   O       -2.12738         2.54314         0.79088
   C       -2.02771         5.96079        -0.28466
   C       -0.93765         6.61276        -0.74621
   C        0.23248         5.79050        -0.54044
   C        1.55551         6.15622        -0.65278
   C        2.68931         5.33886        -0.29217
   C        3.78871         5.79265        -0.94043
   C        3.42225         6.96122        -1.69102
   N        4.36025         7.72056        -2.41450
   O        4.06919         8.86133        -2.73078
   O        5.42472         7.18320        -2.66924
   C        2.09429         7.28592        -1.44162
   C        1.46391         8.47791        -1.87961
   C        0.64878         9.22860        -1.08478
   C        0.07325        10.44574        -1.50699
   N       -0.62968        11.28917        -0.68084
   C       -0.84063        11.12938         0.73819
   C        0.40414        11.49926         1.54047
   C       -1.09095        12.43137        -1.35904
   O       -1.73708        13.30931        -0.82865
   C       -0.63248        12.24462        -2.72230
   C        0.06790        11.02363        -2.78219
   C        0.50582        10.82332        -4.15149
   O        1.10472         9.92009        -4.68813
   N        0.05818        11.97774        -4.82673
   C        0.27286        12.14104        -6.24532
   C       -0.97501        11.78979        -7.05096
   C       -0.62869        12.82466        -3.99921
   C       -1.19509        14.05186        -4.41956
   C       -1.90978        14.85819        -3.59452
   C       -2.48790        16.08562        -4.04821
   N       -2.43487        16.40961        -5.33530
   N       -2.87626        17.52444        -5.80768
   C       -3.51707        18.42468        -5.08363
   C       -3.77242        18.14063        -3.71472
   C       -3.17729        16.96119        -3.16248
   N       -3.43130        16.83664        -1.86459
   S       -4.35328        18.06471        -1.40275
   N       -4.48064        18.81889        -2.81592
   C       -3.96709        19.65461        -5.69566
   C       -3.76458        20.86680        -5.13701
   C       -4.29318        22.15712        -5.56198
   C       -5.18279        22.37477        -6.57752
   C       -5.68699        23.64575        -6.93045
   N       -6.13105        24.64895        -7.26665
   C       -5.73235        21.37076        -7.40416
   N       -6.22850        20.61009        -8.10597
   C       -3.74888        23.17083        -4.66867
   C       -2.89330        22.54058        -3.71850
   C       -2.84223        21.09750        -3.98272
   O       -2.14285        20.27419        -3.43406
   C       -2.24345        23.25065        -2.74920
   C       -2.42835        24.64868        -2.67739
   C       -3.28230        25.28749        -3.62337
   C       -3.93617        24.52822        -4.61977
   C       -3.45928        26.68410        -3.54327
   C       -2.82534        27.41536        -2.57596
   C       -1.98458        26.78542        -1.64574
   C       -1.79023        25.43164        -1.69519
   H        4.78479         0.29258        -0.14420
   H        4.17470         3.72135        -3.71748
   H        6.44275         3.33065        -4.47416
   H        8.58489         2.12849        -4.28799
   H        8.89784         0.40788        -2.55349
   H        7.07516        -0.11808        -0.98257
   H        0.17061         2.64832         0.97847
   H       -3.04557         6.29956        -0.26757
   H       -0.92987         7.58942        -1.18294
   H        2.65808         4.52827         0.40726
   H        4.78816         5.40296        -0.89973
   H        1.76207         8.86630        -2.84745
   H        0.47916         8.92158        -0.06120
   H       -1.15182        10.10242         0.94941
   H       -1.65962        11.80542         0.99885
   H        1.24998        10.87451         1.26185
   H        0.20871        11.37211         2.60144
   H        0.66761        12.53804         1.35803
   H        1.08497        11.45776        -6.50830
   H        0.59176        13.16634        -6.44888
   H       -1.25670        10.75548        -6.86952
   H       -0.77116        11.91202        -8.11070
   H       -1.80957        12.43215        -6.77931
   H       -1.05949        14.36451        -5.44508
   H       -2.07554        14.60640        -2.55564
   H       -4.47881        19.54740        -6.64229
   H       -1.59749        22.74915        -2.04380
   H       -4.57073        25.04265        -5.32372
   H       -4.10727        27.16456        -4.26138
   H       -2.96799        28.48408        -2.52207
   H       -1.49167        27.37836        -0.89006
   H       -1.14368        24.94138        -0.98223
*
