# ORCA input file
# SCF done       -217.923898072766          0.000709043767
! CAM-B3LYP def2-SVP def2/J RIJCOSX Grid4 TightSCF
%maxcore 5000
%tddft
    Mode sTDDFT
    Ethresh 5.0
    maxcore 5000
end

%pal
  nprocs 6
  end
* xyz 0 1
   C       -5.88324        -1.26899         8.61373
   C       -7.00801        -0.56012         8.93084
   F       -7.01184         0.25743         9.99070
   C       -8.17562        -0.67952         8.14985
   F       -9.26303         0.02642         8.48486
   C       -8.20184        -1.50652         7.06199
   C       -7.05877        -2.25034         6.70958
   C       -5.87724        -2.13011         7.49802
   C       -4.71659        -2.86418         7.16178
   C       -4.73855        -3.69476         6.07273
   C       -5.92641        -3.81581         5.29665
   C       -7.06047        -3.11533         5.59311
   C       -5.69759        -4.77856         4.20591
   O       -6.48327        -5.08287         3.32844
   C       -4.33736        -5.30497         4.41143
   C       -3.71109        -4.54757         5.48200
   C       -2.38421        -4.55218         5.81270
   C       -1.37735        -5.24562         5.10321
   N       -0.49738        -5.72967         4.54898
   C       -1.83747        -3.78849         6.86628
   N       -1.34667        -3.19621         7.71778
   C       -3.82280        -6.41635         3.80804
   C       -4.38251        -7.20887         2.78611
   C       -3.80202        -8.38704         2.34515
   C       -2.61467        -9.17859         2.71412
   O       -1.81837        -9.01778         3.60410
   N       -2.59252       -10.21459         1.79228
   C       -1.55214       -11.21216         1.75467
   C       -3.63403       -10.17028         0.86334
   O       -3.72841       -10.92681        -0.07015
   C       -4.45376        -9.01883         1.27641
   C       -5.58793        -8.33895         0.86318
   S       -5.82192        -6.89640         1.82954
   C       -6.52975        -8.69006        -0.12976
   S       -7.46294        -7.47695        -0.94437
   C       -8.32489        -8.63036        -1.90186
   C       -7.91318        -9.92377        -1.57797
   C       -6.90254        -9.96108        -0.56890
   N       -6.45211       -11.12916        -0.06855
   C       -6.92034       -12.21674        -0.62094
   O       -6.53173       -13.40792        -0.19498
   C       -5.52996       -13.42798         0.82292
   C       -5.16002       -14.87433         1.09273
   C       -7.88739       -12.19053        -1.70144
   C       -8.36021       -13.47862        -2.29475
   N       -9.03666       -13.28615        -3.55567
   N       -8.37750       -11.06875        -2.13200
   C       -9.31102        -8.22679        -2.86405
   C      -10.05205        -9.18873        -3.55226
   C      -11.02652        -8.81482        -4.45946
   N      -11.72893        -9.87911        -5.12657
   O      -11.69014       -10.97868        -4.61486
   O      -12.32411        -9.62505        -6.15451
   C      -11.29536        -7.46176        -4.73963
   C      -10.52672        -6.51009        -4.05472
   C       -9.56938        -6.87490        -3.13844
   C      -12.35041        -7.02520        -5.62657
   C      -12.24286        -5.95772        -6.44218
   C      -13.26182        -5.52015        -7.34143
   C      -14.61098        -5.62030        -7.23806
   C      -15.44346        -5.43862        -8.46467
   O      -15.08010        -4.97601        -9.51922
   C      -16.77024        -5.98434        -8.11773
   C      -17.85899        -6.16887        -8.92062
   C      -19.03119        -6.73228        -8.36904
   C      -19.04763        -7.10530        -6.99327
   C      -20.21866        -7.67176        -6.45031
   C      -21.32257        -7.85460        -7.23456
   C      -21.30589        -7.48381        -8.59469
   C      -20.18491        -6.93494        -9.15143
   F      -22.40259        -7.67513        -9.33907
   F      -22.43545        -8.38916        -6.71651
   C      -17.90604        -6.90024        -6.18606
   C      -16.78597        -6.33728        -6.73814
   C      -15.50064        -5.97320        -6.14780
   C      -15.28366        -5.77183        -4.81111
   C      -14.11312        -5.19928        -4.27524
   N      -13.20202        -4.70969        -3.77780
   C      -16.24073        -6.04205        -3.81022
   N      -16.97649        -6.25348        -2.95529
   H       -4.99787        -1.16452         9.22121
   H       -9.10303        -1.58705         6.47457
   H       -3.83991        -2.75522         7.77958
   H       -7.94618        -3.22189         4.98552
   H       -2.86959        -6.79847         4.15938
   H       -0.66285       -10.79863         2.22739
   H       -1.34831       -11.46960         0.71609
   H       -1.86162       -12.11068         2.29278
   H       -5.92846       -12.94084         1.72046
   H       -4.67110       -12.84644         0.47140
   H       -6.03609       -15.43515         1.40813
   H       -4.40984       -14.91921         1.87678
   H       -4.75945       -15.33237         0.19266
   H       -8.97500       -13.97520        -1.51762
   H       -7.48748       -14.12101        -2.45745
   H       -9.78021       -12.60193        -3.47542
   H       -9.43824       -14.15609        -3.88330
   H       -9.84913       -10.23497        -3.38237
   H      -10.74093        -5.46597        -4.21841
   H       -9.00993        -6.11373        -2.61506
   H      -13.24997        -7.62535        -5.66076
   H      -11.29205        -5.44815        -6.52584
   H      -12.91451        -5.09103        -8.27707
   H      -17.82679        -5.88754        -9.96213
   H      -20.24932        -7.95756        -5.41051
   H      -20.18825        -6.65699       -10.19372
   H      -17.94262        -7.20185        -5.15138
*
