# ORCA input file
# SCF done       -210.458589003866          0.000270964613
! CAM-B3LYP def2-SVP def2/J RIJCOSX Grid4 TightSCF
%maxcore 5000
%tddft
    Mode sTDDFT
    Ethresh 5.0
    maxcore 5000
end

%pal
  nprocs 6
  end
* xyz 0 1
   C       -7.49660         1.48104         0.80979
   C       -6.53075         1.61054         1.76791
   F       -6.57394         2.63292         2.63030
   C       -5.47951         0.67486         1.86214
   F       -4.54932         0.83346         2.80997
   C       -5.40552        -0.37582         0.99172
   C       -6.38607        -0.53631        -0.00570
   C       -7.45416         0.40416        -0.09854
   C       -8.46344         0.24736        -1.07519
   C       -8.42169        -0.83071        -1.92153
   C       -7.34999        -1.76419        -1.82060
   C       -6.34582        -1.62220        -0.90465
   C       -7.56664        -2.85790        -2.77531
   O       -6.80904        -3.75908        -3.06005
   C       -8.92279        -2.61779        -3.35055
   C       -9.36427        -1.29503        -2.93451
   C      -10.48277        -0.63636        -3.36025
   C      -10.84712         0.65703        -2.92569
   N      -11.18695         1.70594        -2.60905
   C      -11.42544        -1.16195        -4.27182
   N      -12.25235        -1.54838        -4.96650
   C       -9.59209        -3.57261        -4.03969
   C       -9.09995        -4.91767        -4.13350
   C       -8.84143        -5.60006        -5.29984
   N       -9.07850        -5.10272        -6.59621
   O       -8.88106        -5.85294        -7.53229
   O       -9.47555        -3.95359        -6.69419
   C       -8.15304        -6.82832        -5.00105
   C       -7.96767        -6.89437        -3.66067
   C       -8.59172        -5.75671        -3.03369
   C       -8.71652        -5.42411        -1.69980
   C       -9.51522        -4.33326        -1.20347
   C       -8.93123        -3.83461        -0.08613
   C       -7.77059        -4.62497         0.21365
   N       -6.90100        -4.31034         1.25560
   O       -5.98395        -5.07835         1.52695
   O       -7.07723        -3.24249         1.82886
   C       -7.71206        -5.71827        -0.65785
   C       -6.84233        -6.81520        -0.52141
   C       -7.16635        -8.10542        -0.83860
   C       -6.33851        -9.21616        -0.60566
   N       -5.04882        -9.15481        -0.11232
   C       -4.49874       -10.37788         0.03340
   C       -5.43463       -11.31536        -0.37632
   C       -6.58718       -10.58647        -0.77564
   N       -7.54304       -11.46735        -1.16484
   C       -7.05091       -12.72973        -1.01987
   C       -5.75388       -12.70490        -0.54028
   C       -4.92986       -13.83052        -0.24681
   S       -5.56243       -15.44852        -0.30809
   C       -4.03770       -16.12344         0.18271
   C       -3.09598       -15.10812         0.36686
   C       -3.60515       -13.82297         0.12770
   C       -1.77020       -15.36031         0.76041
   N       -0.68583       -15.55713         1.07704
   C       -3.84202       -17.50216         0.41101
   C       -4.82446       -18.43773         0.31532
   C       -4.61815       -19.79253         0.64810
   C       -5.56466       -20.75921         0.82511
   C       -5.15608       -22.19031         0.82778
   O       -4.02768       -22.61903         0.89395
   C       -6.41114       -22.95413         0.68027
   C       -6.58207       -24.30096         0.53971
   C       -7.88970       -24.81631         0.39613
   C       -8.99672       -23.91878         0.38963
   C      -10.29885       -24.43779         0.24272
   C      -10.49287       -25.78438         0.11337
   C       -9.39723       -26.67130         0.12146
   C       -8.12214       -26.19865         0.25910
   F       -9.61752       -27.98587        -0.00791
   F      -11.73096       -26.27575        -0.02279
   C       -8.78830       -22.52849         0.53873
   C       -7.51346       -22.05220         0.69261
   C       -7.00642       -20.69885         0.91890
   C       -7.76638       -19.64259         1.35237
   C       -7.26151       -18.42338         1.85095
   N       -6.93177       -17.42448         2.31130
   C       -9.17355       -19.67752         1.45128
   N      -10.31818       -19.63243         1.52599
   H       -8.29512         2.20454         0.75565
   H       -4.60212        -1.08926         1.08228
   H       -9.25917         0.97391        -1.11575
   H       -5.54438        -2.34354        -0.85205
   H      -10.51231        -3.34240        -4.56304
   H       -7.82795        -7.52420        -5.75051
   H       -7.46787        -7.68564        -3.14116
   H      -10.42570        -3.99330        -1.65682
   H       -9.25262        -3.00520         0.51517
   H       -5.92825        -6.61391         0.02001
   H       -8.15318        -8.32311        -1.22471
   H       -4.59327        -8.28953         0.13199
   H       -3.50372       -10.49592         0.41363
   H       -8.46806       -11.24487        -1.49424
   H       -7.64559       -13.58792        -1.26623
   H       -3.02091       -12.92678         0.22443
   H       -2.85336       -17.79327         0.74473
   H       -5.80508       -18.12710        -0.01854
   H       -3.59096       -20.13243         0.73371
   H       -5.73091       -24.96464         0.54152
   H      -11.14894       -23.77354         0.23847
   H       -7.29428       -26.89023         0.26365
   H       -9.64524       -21.87438         0.52200
*
