# ORCA input file
# SCF done       -210.764469250529          0.000655477288
! CAM-B3LYP def2-SVP def2/J RIJCOSX Grid4 TightSCF
%maxcore 5000
%tddft
    Mode sTDDFT
    Ethresh 5.0
    maxcore 5000
end

%pal
  nprocs 6
  end
* xyz 0 1
   C       -9.45958         2.06353         0.39166
   C       -9.00672         3.00551         1.27211
   F       -9.57913         4.21519         1.31722
   C       -7.93530         2.71866         2.14224
   F       -7.51374         3.66092         2.99572
   C       -7.33089         1.49316         2.11889
   C       -7.77503         0.50104         1.22317
   C       -8.85826         0.78960         0.34251
   C       -9.32024        -0.19038        -0.56532
   C       -8.71660        -1.42033        -0.59050
   C       -7.63996        -1.70138         0.29547
   C       -7.17132        -0.77506         1.18218
   C       -7.16659        -3.08441         0.08592
   O       -6.24955        -3.61961         0.66774
   C       -8.09515        -3.66766        -0.92025
   C       -8.96561        -2.60636        -1.40021
   C       -9.79421        -2.68037        -2.48703
   C       -9.90687        -3.80720        -3.33070
   N      -10.01701        -4.67085        -4.07866
   C      -10.59867        -1.61143        -2.93499
   N      -11.27265        -0.77378        -3.33655
   C       -8.29151        -4.99445        -1.15836
   C       -7.46176        -6.09133        -0.77740
   C       -8.06840        -7.35902        -0.55543
   N       -9.33719        -7.70910        -0.57739
   O       -9.37215        -8.99407        -0.22777
   N       -8.16846        -9.49772         0.02806
   C       -7.30597        -8.52400        -0.17055
   C       -5.88799        -8.44897        -0.03941
   C       -5.33843        -7.19581        -0.28679
   C       -6.08122        -6.06955        -0.64044
   C       -5.07586        -9.56220         0.32083
   S       -3.44881        -9.30570         0.87171
   C       -3.12739       -10.98978         1.09228
   C       -4.25298       -11.73442         0.73685
   C       -5.34906       -10.93220         0.28969
   N       -6.48312       -11.50102        -0.16198
   C       -6.55310       -12.80341        -0.11994
   O       -7.63497       -13.44211        -0.54164
   C       -8.71527       -12.64453        -1.03684
   C       -8.44973       -12.13209        -2.44447
   C       -5.47428       -13.61900         0.40027
   C       -5.65545       -15.09998         0.48702
   N       -4.44965       -15.76574         0.92640
   N       -4.36336       -13.08236         0.80328
   C       -1.85496       -11.45068         1.56790
   C       -0.84947       -10.54074         1.91304
   C        0.37684       -10.98305         2.36380
   N        1.39634        -9.97387         2.53209
   O        2.49848       -10.21354         2.08799
   O        1.07020        -8.93579         3.06321
   C        0.65242       -12.35122         2.54065
   C       -0.35077       -13.24818         2.14589
   C       -1.56765       -12.82142         1.66940
   C        1.84945       -12.86387         3.15859
   C        2.57174       -12.23528         4.11156
   C        3.73426       -12.80897         4.68782
   C        4.48031       -12.29500         5.70073
   C        5.87434       -12.78103         5.91055
   O        6.35581       -13.80293         5.48282
   C        6.53570       -11.71900         6.69491
   C        7.85265       -11.59886         7.03397
   C        8.27480       -10.46001         7.75541
   C        7.32037        -9.46156         8.10790
   C        7.75146        -8.32141         8.81573
   C        9.06649        -8.18078         9.15990
   C       10.00890        -9.17018         8.81312
   C        9.62271       -10.28654         8.12592
   F       11.29128        -9.00539         9.16336
   F        9.47444        -7.09713         9.83245
   C        5.96131        -9.61761         7.75166
   C        5.57308       -10.73451         7.06091
   C        4.26098       -11.16809         6.58608
   C        3.05877       -10.72453         7.06755
   C        1.81733       -11.33535         6.78748
   N        0.79293       -11.82688         6.62549
   C        2.93306        -9.66951         7.99721
   N        2.78014        -8.81430         8.74660
   H      -10.27959         2.30026        -0.26819
   H       -6.51236         1.28877         2.79117
   H      -10.14645         0.05351        -1.21358
   H       -6.35184        -1.01398         1.84290
   H       -9.21756        -5.29469        -1.63559
   H       -4.26614        -7.08751        -0.21122
   H       -5.54682        -5.15641        -0.84020
   H       -8.87267       -11.80312        -0.35707
   H       -9.57581       -13.31634        -1.02153
   H       -7.60285       -11.45121        -2.43620
   H       -9.32559       -11.59924        -2.80228
   H       -8.23694       -12.95862        -3.11832
   H       -5.92101       -15.47344        -0.50878
   H       -6.53645       -15.27655         1.13312
   H       -4.10311       -15.33584         1.77651
   H       -4.62985       -16.74628         1.10582
   H       -1.01297        -9.47749         1.80802
   H       -0.16282       -14.30639         2.24586
   H       -2.32131       -13.53087         1.36635
   H        2.11876       -13.87679         2.88804
   H        2.28181       -11.25429         4.45687
   H        4.13239       -13.70203         4.21841
   H        8.56371       -12.36002         6.75110
   H        7.04298        -7.55596         9.09132
   H       10.35605       -11.03406         7.86684
   H        5.26222        -8.84224         8.02177
*
