# ORCA input file
# SCF done       -198.612138673277          0.000712291319
! CAM-B3LYP def2-SVP def2/J RIJCOSX Grid4 TightSCF
%maxcore 5000
%tddft
    Mode sTDDFT
    Ethresh 5.0
    maxcore 5000
end

%pal
  nprocs 6
  end
* xyz 0 1
   C       -3.10890         0.69715        -1.24391
   F       -3.72154         1.74776        -0.70071
   C       -1.97746         0.88513        -2.03504
   F       -1.50364         2.11246        -2.23999
   C       -1.34811        -0.21170        -2.61778
   F       -0.26718        -0.03457        -3.37727
   C       -1.85432        -1.48824        -2.40381
   F       -1.23925        -2.53893        -2.95562
   C       -2.98188        -1.70029        -1.61162
   C       -3.59684        -0.58660        -1.03769
   F       -4.69727        -0.76016        -0.30429
   C       -3.48435        -3.04940        -1.36084
   C       -3.58512        -3.66854        -0.13977
   N       -3.21850        -3.13316         1.11973
   O       -3.53134        -3.76917         2.10418
   O       -2.59789        -2.08584         1.13244
   C       -4.07449        -5.01851        -0.32058
   C       -4.20810        -5.24260        -1.64548
   C       -3.86110        -4.03301        -2.36567
   C       -3.99887        -3.80652        -3.71695
   C       -4.28053        -2.54752        -4.33083
   C       -4.75403        -2.76792        -5.59054
   C       -4.71253        -4.17039        -5.87005
   N       -5.09957        -4.70496        -7.11471
   O       -5.09144        -5.91836        -7.25860
   O       -5.45332        -3.91739        -7.97051
   C       -4.17605        -4.84037        -4.76767
   C       -3.70031        -6.15659        -4.79465
   C       -2.79694        -6.73283        -3.93566
   C       -2.30993        -8.03500        -4.12747
   S       -1.91710        -8.96390        -2.71474
   C       -1.92304       -10.45148        -3.59517
   C       -2.03626       -10.22166        -4.98104
   C       -2.22190        -8.83433        -5.29314
   C       -2.21640        -8.43151        -6.64752
   N       -2.01751        -7.08065        -7.08306
   O       -1.57194        -6.28124        -6.27815
   O       -2.24370        -6.82377        -8.24519
   C       -2.21495        -9.40325        -7.64112
   C       -2.07506       -10.74058        -7.34436
   C       -1.88815       -11.17581        -6.02985
   N       -1.55492       -12.46296        -5.79734
   C       -1.91702       -11.65247        -2.83561
   C       -1.31677       -11.82600        -1.60328
   C       -1.60335       -13.12939        -1.11849
   C       -2.47910       -13.75235        -2.12596
   C       -2.65422       -12.86934        -3.14524
   C       -3.06207       -15.02401        -2.07070
   N       -3.54838       -16.06415        -2.06649
   C       -1.16856       -13.70910         0.05470
   C       -1.44169       -15.02388         0.52720
   C       -0.82841       -15.20350         1.74767
   C       -0.13206       -13.96647         2.08188
   C       -0.32172       -13.06952         1.08107
   C        0.19788       -11.77108         1.04165
   N        0.63594       -10.70939         1.02315
   C       -0.81945       -16.34358         2.60276
   C       -1.40375       -17.52178         2.28769
   C       -1.44076       -18.72079         3.09010
   C       -1.02493       -18.82552         4.42677
   C       -1.09963       -20.01851         5.13386
   C       -1.59663       -21.16755         4.52493
   C       -2.02141       -21.10154         3.19985
   C       -1.94321       -19.90049         2.51115
   F       -2.35520       -19.87332         1.24047
   F       -2.49997       -22.19097         2.59878
   F       -1.66555       -22.31215         5.19980
   F       -0.69301       -20.06275         6.40338
   F       -0.54761       -17.75898         5.07680
   H       -4.27900        -5.68549         0.49422
   H       -4.60988        -6.12224        -2.10869
   H       -4.25348        -1.59987        -3.82978
   H       -5.11257        -2.03545        -6.28971
   H       -4.05568        -6.74642        -5.62995
   H       -2.46319        -6.21011        -3.05184
   H       -2.25805        -9.07263        -8.66795
   H       -2.02411       -11.46395        -8.14306
   H       -1.34461       -13.05022        -6.58628
   H       -1.21068       -12.74735        -4.89612
   H       -0.70080       -11.10350        -1.10527
   H       -3.29436       -13.00531        -3.99698
   H       -2.03923       -15.74076         0.00078
   H        0.43603       -13.81137         2.98046
   H       -0.29546       -16.21346         3.53753
   H       -1.89095       -17.61599         1.32719
*
