# ORCA input file
# SCF done       -224.516722547037          0.000289068897
! CAM-B3LYP def2-SVP def2/J RIJCOSX Grid4 TightSCF
%maxcore 5000
%tddft
    Mode sTDDFT
    Ethresh 5.0
    maxcore 5000
end

%pal
  nprocs 6
  end
* xyz 0 1
   C       -1.54675        -2.91431         3.01023
   N       -0.59720        -2.33832         3.78106
   C        0.66002        -2.92816         4.16990
   C        1.68903        -2.83908         3.04603
   C       -0.94393        -1.00302         4.11573
   O       -0.22774        -0.27085         4.76292
   C       -2.23847        -0.81798         3.49960
   C       -2.56986        -2.01941         2.81141
   C       -3.84959        -1.82090         2.15346
   O       -4.52909        -2.53762         1.45863
   N       -4.19842        -0.49364         2.48530
   C       -5.45475         0.07544         2.06064
   C       -6.48832         0.07150         3.18386
   C       -3.26512         0.10374         3.29753
   C       -3.36553         1.42816         3.78385
   C       -2.53618         1.91214         4.75149
   C       -2.55595         3.23310         5.25015
   C       -2.25502         3.62571         6.54834
   N       -1.85292         2.80394         7.61972
   O       -1.46103         3.36174         8.62904
   O       -1.92603         1.59451         7.48450
   C       -2.50118         5.03078         6.69446
   C       -2.98633         5.51475         5.51970
   C       -2.99315         4.45925         4.54763
   C       -3.17664         4.60376         3.19051
   C       -2.58714         3.79742         2.15436
   C       -2.82148         4.39249         0.96263
   C       -3.60835         5.58659         1.17316
   N       -4.07298         6.31724         0.06326
   O       -4.45958         7.46449         0.21326
   O       -4.05583         5.74384        -1.01246
   C       -3.85148         5.74200         2.52971
   C       -4.72282         6.60252         3.26111
   C       -5.07658         7.87006         2.95024
   C       -5.96211         8.70135         3.72771
   C       -6.64440         8.25789         4.85998
   C       -7.49565         9.10141         5.55569
   N       -8.19718         8.53176         6.67386
   O       -7.75083         7.51378         7.15799
   O       -9.20413         9.08994         7.06275
   C       -7.69876        10.43623         5.16390
   C       -6.99566        10.87591         4.03478
   C       -6.16306        10.03560         3.33326
   C       -8.52939        11.37606         5.89716
   C       -9.23947        12.32985         5.28633
   C       -9.94184        13.40773         5.96076
   C       -9.50551        14.71092         5.92585
   N       -8.32842        15.15185         5.30209
   O       -8.03171        16.32742         5.40561
   O       -7.66640        14.32710         4.68533
   C      -10.41726        15.56238         6.66322
   C      -11.45201        14.80093         7.07075
   C      -11.23853        13.43158         6.63944
   C      -12.11111        12.37659         6.76815
   C      -11.78577        10.98302         6.75169
   C      -12.86475        10.28668         7.19036
   C      -13.95895        11.19000         7.43224
   N      -15.20596        10.67671         7.82646
   O      -16.03972        11.42421         8.31981
   O      -15.38759         9.48207         7.66801
   C      -13.55346        12.48934         7.11788
   C      -14.26540        13.67330         6.84265
   C      -15.55071        13.98486         7.19845
   C      -16.16965        15.18157         6.78846
   N      -17.45688        15.52063         7.12864
   C      -18.39679        14.69614         7.85395
   C      -18.96431        13.57888         6.98343
   C      -17.82683        16.77758         6.62712
   O      -18.91705        17.27972         6.80032
   C      -16.64487        17.24438         5.92524
   C      -15.65319        16.24283         6.03015
   C      -14.47739        16.71042         5.33049
   O      -13.38838        16.20821         5.13265
   N      -14.83626        17.99025         4.86135
   C      -13.91946        18.77078         4.06474
   C      -14.24169        18.67940         2.57548
   C      -16.12224        18.31555         5.19986
   C      -16.74312        19.55964         4.85588
   C      -18.00899        19.84963         5.17183
   H       -1.44140        -3.92348         2.65617
   H        0.49131        -3.97023         4.45364
   H        1.01197        -2.36886         5.04062
   H        1.33955        -3.36653         2.16110
   H        2.62625        -3.28213         3.36981
   H        1.86819        -1.79896         2.78522
   H       -5.80539        -0.55159         1.23624
   H       -5.28869         1.08946         1.68495
   H       -6.67597        -0.94799         3.51129
   H       -7.42133         0.49790         2.82655
   H       -6.14154         0.65031         4.03725
   H       -4.15669         2.05225         3.39176
   H       -1.85455         1.22937         5.24744
   H       -2.32503         5.57271         7.60435
   H       -3.19795         6.54402         5.30532
   H       -1.96657         2.94114         2.32814
   H       -2.48756         4.07733        -0.00765
   H       -5.09578         6.16246         4.17685
   H       -4.66624         8.33466         2.06692
   H       -6.54651         7.24418         5.21728
   H       -7.08838        11.91142         3.74569
   H       -5.64269        10.40416         2.46212
   H       -8.53066        11.30971         6.97691
   H       -9.24269        12.38581         4.20365
   H      -10.24790        16.60772         6.83172
   H      -12.26970        15.11804         7.68638
   H      -10.82112        10.56973         6.54611
   H      -12.93122         9.22740         7.35216
   H      -13.72482        14.39709         6.24686
   H      -16.11575        13.31340         7.82588
   H      -19.20208        15.36581         8.16781
   H      -17.91226        14.28080         8.74090
   H      -19.43826        13.99571         6.09776
   H      -19.70722        13.02270         7.54725
   H      -18.18255        12.89020         6.67381
   H      -12.92631        18.35243         4.25066
   H      -13.93283        19.80975         4.40442
   H      -14.18003        17.64560         2.24466
   H      -13.52528        19.26772         2.00930
   H      -15.24291        19.05037         2.36763
   H      -16.13616        20.27704         4.32127
   H      -18.63453        19.15150         5.70344
   H      -18.44478        20.79642         4.90344
*
