# ORCA input file
# SCF done       -221.973815616140          0.000608899030
! CAM-B3LYP def2-SVP def2/J RIJCOSX Grid4 TightSCF
%maxcore 5000
%tddft
    Mode sTDDFT
    Ethresh 5.0
    maxcore 5000
end

%pal
  nprocs 6
  end
* xyz 0 1
   C       -8.20237        -4.72933       -10.30048
   C       -7.71502        -5.09090        -9.05371
   C       -7.65671        -4.15535        -7.90846
   O       -7.98981        -3.01194        -7.88585
   S       -6.98358        -5.03037        -6.49369
   C       -6.80440        -6.57633        -7.39609
   O       -6.37879        -7.57042        -6.88511
   C       -7.25495        -6.37804        -8.78604
   C       -7.26361        -7.39002        -9.76763
   C       -7.68631        -6.98720       -11.05134
   C       -8.15899        -5.69966       -11.29169
   C       -8.58987        -5.44009       -12.68462
   O       -9.07295        -4.44146       -13.11907
   S       -8.25648        -6.90291       -13.66481
   C       -7.55136        -7.80332       -12.27751
   O       -7.00753        -8.85842       -12.41341
   C       -6.88380        -8.74188        -9.44504
   C       -7.58389        -9.82151        -9.84858
   C       -7.27440       -11.15635        -9.45739
   C       -8.17880       -12.18037        -9.20668
   N       -9.57509       -12.15813        -9.38591
   O      -10.18044       -13.19404        -9.17919
   O      -10.10300       -11.11427        -9.73557
   C       -7.48105       -13.31766        -8.67291
   C       -6.16832       -12.99697        -8.55072
   C       -5.96345       -11.66752        -9.07000
   C       -4.73697       -11.09918        -9.36227
   C       -4.42784       -10.27459       -10.48105
   C       -3.06911       -10.23198       -10.62991
   C       -2.45185       -10.95264        -9.56318
   N       -1.06727       -11.03494        -9.39789
   O       -0.36264       -10.48906       -10.23067
   O       -0.62210       -11.65787        -8.43877
   C       -3.45212       -11.46461        -8.72374
   C       -3.28683       -12.04169        -7.46563
   C       -4.25200       -12.07736        -6.48052
   C       -4.06697       -12.71210        -5.25481
   S       -5.23498       -12.55982        -3.97422
   C       -4.33493       -13.55231        -2.86238
   C       -3.15000       -14.00176        -3.48527
   C       -2.99738       -13.52324        -4.81530
   N       -1.91999       -13.82900        -5.55216
   C       -0.99563       -14.57403        -4.98985
   O        0.11527       -14.87879        -5.63086
   C        0.28222       -14.39985        -6.97159
   C       -0.56574       -15.17806        -7.96546
   C       -1.15578       -15.09509        -3.65251
   C       -0.07894       -15.94896        -3.03599
   N        1.15751       -15.22355        -2.82545
   N       -2.20522       -14.79501        -2.94129
   C       -4.84480       -13.72342        -1.56067
   S       -6.13270       -12.66858        -1.05874
   C       -6.25000       -13.38491         0.49121
   C       -5.33375       -14.42558         0.63955
   C       -4.52154       -14.62364        -0.52321
   C       -3.57675       -15.65869        -0.52672
   C       -3.42749       -16.45260         0.58859
   C       -2.47090       -17.49430         0.57478
   N       -1.68569       -18.32791         0.54136
   C       -4.21447       -16.23104         1.75849
   C       -4.02990       -17.05288         2.89574
   N       -3.89633       -17.70414         3.82822
   C       -5.14916       -15.22547         1.78255
   C       -7.21413       -12.92584         1.47424
   C       -8.21901       -13.76812         1.97123
   C       -8.45812       -15.13981         1.47036
   O       -7.88599       -15.70327         0.58429
   S       -9.81054       -15.86558         2.38573
   C      -10.08483       -14.38010         3.36573
   O      -10.92694       -14.30631         4.20618
   C       -9.11951       -13.34320         2.94391
   C       -9.10327       -12.04259         3.47363
   C       -8.13379       -11.18377         2.93086
   C       -7.20809       -11.61884         1.98342
   C       -6.18628       -10.61484         1.61601
   O       -5.22072       -10.77812         0.92813
   S       -6.57790        -9.06644         2.40814
   C       -8.02998        -9.73885         3.24233
   O       -8.76005        -9.05636         3.88874
   C      -10.04274       -11.64540         4.51651
   C       -9.68446       -11.09625         5.66775
   H       -8.57707        -3.73729       -10.49686
   H       -6.06721        -8.85615        -8.74652
   H       -8.50457        -9.69578       -10.40331
   H       -7.95973       -14.24612        -8.42736
   H       -5.37785       -13.65308        -8.24241
   H       -5.15230        -9.87783       -11.16542
   H       -2.51841        -9.74788       -11.41477
   H       -2.30070       -12.41165        -7.21681
   H       -5.18545       -11.54705        -6.61870
   H        1.34486       -14.54266        -7.17501
   H        0.03650       -13.33600        -7.01747
   H       -0.32211       -16.23731        -7.93052
   H       -0.36742       -14.80007        -8.96330
   H       -1.62207       -15.04703        -7.74539
   H        0.13548       -16.79465        -3.69502
   H       -0.43036       -16.32643        -2.07278
   H        1.56343       -14.93169        -3.70688
   H        1.00914       -14.40802        -2.24198
   H       -2.95954       -15.81522        -1.39708
   H       -5.74242       -15.05497         2.66889
   H      -11.07709       -11.89853         4.32811
   H       -8.65563       -10.89202         5.91368
   H      -10.41553       -10.84881         6.41599
*
