# ORCA input file
# SCF done       -193.990834288613          0.000858791863
! CAM-B3LYP def2-SVP def2/J RIJCOSX Grid4 TightSCF
%maxcore 5000
%tddft
    Mode sTDDFT
    Ethresh 5.0
    maxcore 5000
end

%pal
  nprocs 6
  end
* xyz 0 1
   C        7.51265        -4.00923        -5.76492
   C        7.50617        -5.36151        -5.99526
   C        7.60166        -6.27032        -4.92052
   N        7.67463        -7.00404        -4.04175
   C        7.40925        -5.97026        -7.25853
   N        7.33511        -6.52500        -8.26139
   C        7.42598        -2.92319        -6.70656
   C        7.46048        -1.65890        -6.08204
   C        7.38685        -0.50389        -6.85630
   C        7.28196        -0.61326        -8.22843
   C        7.24917        -1.86096        -8.84270
   C        7.32001        -3.01800        -8.09272
   C        7.57917        -1.72704        -4.64699
   S        7.63990        -3.40646        -4.12795
   C        7.64415        -0.67107        -3.79143
   C        7.78142        -0.69139        -2.38886
   C        7.85932         0.44153        -1.58230
   C        8.01323         0.12306        -0.24095
   C        8.05161        -1.26946        -0.00903
   S        7.89557        -2.17418        -1.44728
   C        8.22746        -1.49875         1.37282
   C        8.30257        -0.24621         2.02269
   C        8.16585         0.80872         1.03347
   C        8.18103         2.15550         1.24985
   C        8.34047         2.71136         2.53707
   N        8.47150         3.17482         3.57750
   C        8.03917         3.08184         0.19563
   N        7.91947         3.83307        -0.66270
   C        8.49480        -0.36257         3.39134
   C        8.56750        -1.69120         3.79696
   S        8.38520        -2.81110         2.45661
   C        8.78410        -2.16523         5.11683
   C        8.83697        -3.54635         5.40706
   C        9.08902        -4.04774         6.72572
   N        9.12923        -5.37913         6.92718
   C        8.93942        -6.18622         5.93293
   C        8.69001        -5.69038         4.62780
   N        8.64588        -4.41720         4.39702
   F        8.49396        -6.51636         3.60617
   F        8.98540        -7.49258         6.17463
   C        9.30699        -3.19838         7.83292
   C        9.23518        -1.81134         7.55527
   C        8.97769        -1.30549         6.22567
   N        8.95957         0.02771         6.20751
   S        9.23135         0.58922         7.68391
   N        9.39010        -0.81895         8.43213
   C        9.59233        -3.71688         9.12219
   C        9.85007        -2.98441        10.27655
   C       10.11867        -3.80250        11.36350
   C       10.06096        -5.17636        11.04023
   S        9.67649        -5.44905         9.39666
   C       10.36091        -5.91582        12.20476
   C       10.61505        -5.02052        13.26566
   C       10.45382        -3.66145        12.77097
   C       10.57286        -2.50391        13.48159
   C       10.86619        -2.50116        14.86252
   N       11.08981        -2.50390        15.98679
   C       10.39168        -1.23599        12.88885
   N       10.24776        -0.20239        12.41406
   C       10.95021        -5.65866        14.45425
   C       10.94841        -7.04154        14.32409
   S       10.51287        -7.54257        12.68863
   C       11.22721        -8.06293        15.25836
   C       11.72975        -7.94709        16.51726
   C       11.98328        -9.04049        17.42397
   C       12.56593        -8.64008        18.64411
   C       12.78375        -7.21747        18.71524
   C       13.35248        -6.47946        19.72099
   C       13.83969        -6.99965        20.93299
   N       14.25071        -7.36238        21.94237
   C       13.51160        -5.08256        19.59551
   N       13.65496        -3.94911        19.49618
   S       12.21759        -6.42903        17.26149
   C       12.86962        -9.58678        19.62016
   C       12.59046       -10.91715        19.37806
   C       12.01386       -11.31399        18.17621
   C       11.70903       -10.38722        17.19958
   H        7.41193         0.46895        -6.39115
   H        7.22541         0.28023        -8.83125
   H        7.16789        -1.92779        -9.91635
   H        7.29440        -3.98121        -8.57498
   H        7.59334         0.31986        -4.22315
   H        7.80774         1.43915        -1.97949
   H        8.58628         0.44997         4.08820
   H        9.83773        -1.91019        10.28195
   H       11.16943        -5.14782        15.37305
   H       11.02969        -9.06656        14.90531
   H       13.31483        -9.28657        20.55420
   H       12.82177       -11.65424        20.13106
   H       11.80108       -12.35818        18.00477
   H       11.25964       -10.70785        16.27294
*
