# ORCA input file
# SCF done       -190.507847580779          0.000626522075
! CAM-B3LYP def2-SVP def2/J RIJCOSX Grid4 TightSCF
%maxcore 5000
%tddft
    Mode sTDDFT
    Ethresh 5.0
    maxcore 5000
end

%pal
  nprocs 6
  end
* xyz 0 1
   C       -2.00450        -2.63354         2.24176
   S       -2.74263        -2.15030         3.76211
   C       -2.50085        -0.41219         3.40749
   O       -2.82922         0.48023         4.13003
   N       -1.89101        -0.29936         2.19190
   C       -1.58500        -1.45069         1.48542
   O       -1.04013        -1.41821         0.40571
   C       -1.57191         1.00977         1.66167
   C       -1.88090        -3.95864         1.95482
   C       -1.34792        -4.62945         0.83158
   C       -0.85387        -4.18017        -0.38698
   C       -0.42611        -5.22517        -1.19463
   C       -0.58401        -6.49642        -0.59381
   S       -1.27773        -6.39264         0.95554
   C       -0.08840        -7.48391        -1.47126
   C        0.38182        -6.84131        -2.63854
   C        0.17424        -5.40686        -2.50685
   C        0.47772        -4.44972        -3.42851
   C        1.06778        -4.77219        -4.67050
   N        1.55024        -5.02505        -5.67935
   C        0.22376        -3.07422        -3.23230
   N        0.02520        -1.95185        -3.11365
   C        0.91462        -7.72793        -3.56060
   C        0.86261        -9.04348        -3.10835
   S        0.12725        -9.18087        -1.51903
   C        1.35812       -10.19003        -3.77640
   C        1.27509       -11.47110        -3.18341
   C        1.83080       -12.64533        -3.80336
   N        1.73019       -13.82718        -3.18589
   C        1.12595       -13.91223        -2.02503
   C        0.57355       -12.74391        -1.40815
   N        0.66580       -11.57601        -1.99850
   C       -0.08035       -12.83260        -0.15445
   N       -0.60340       -12.92956         0.85954
   C        1.02474       -15.17415        -1.38830
   N        0.92640       -16.18042        -0.85084
   C        2.49689       -12.59965        -5.04927
   C        2.54357       -11.32691        -5.66740
   C        1.98656       -10.14702        -5.04405
   N        2.15701        -9.06716        -5.80722
   S        2.92329        -9.47572        -7.15365
   N        3.08859       -11.04007        -6.84990
   C        3.09150       -13.76070        -5.60356
   C        3.79245       -13.84403        -6.80318
   C        4.28296       -15.12030        -7.02899
   C        3.95247       -16.02373        -5.99461
   S        3.03111       -15.29408        -4.75032
   C        4.51486       -17.27943        -6.30847
   C        5.20524       -17.17783        -7.54188
   C        5.07283       -15.81631        -8.03409
   C        5.57586       -15.28647        -9.18477
   C        6.33315       -16.02740       -10.11897
   N        6.94829       -16.59236       -10.90354
   C        5.37071       -13.93325        -9.53289
   N        5.21201       -12.83533        -9.82283
   C        5.81573       -18.36249        -7.92553
   C        5.60681       -19.38236        -7.00334
   S        4.61866       -18.83616        -5.63750
   C        6.02470       -20.72811        -6.93820
   C        6.80150       -21.48622        -7.76885
   C        7.13361       -22.88229        -7.51352
   C        6.76117       -23.64725        -6.43949
   C        7.13375       -24.99808        -6.26144
   N        7.39328       -26.09467        -6.04308
   C        5.96756       -23.24152        -5.34462
   N        5.33644       -23.00870        -4.41334
   C        7.96616       -23.35011        -8.61929
   C        8.15691       -22.29084        -9.52199
   C        7.45334       -21.09118        -9.04675
   O        7.42938       -20.01395        -9.60324
   C        8.91444       -22.44702       -10.66766
   C        9.48859       -23.68334       -10.91107
   C        9.31189       -24.74934       -10.02948
   C        8.54543       -24.58155        -8.87723
   C        9.92427       -26.08016       -10.32824
   H       -2.47535         1.61631         1.60643
   H       -1.15030         0.86343         0.66852
   H       -0.84913         1.50761         2.30819
   H       -2.24754        -4.62484         2.72832
   H       -0.81303        -3.13718        -0.64289
   H        1.33436        -7.47348        -4.51634
   H        3.92003       -12.99254        -7.44577
   H        6.39404       -18.50815        -8.82117
   H        5.65169       -21.23051        -6.05346
   H        9.04640       -21.61688       -11.34429
   H       10.08598       -23.83047       -11.79886
   H        8.41791       -25.41512        -8.20613
   H       10.88557       -25.96364       -10.82316
   H        9.27078       -26.64321       -10.99548
   H       10.05730       -26.66095        -9.41925
*
