# ORCA input file
# SCF done       -159.021580326150          0.000584535170
! CAM-B3LYP def2-SVP def2/J RIJCOSX Grid4 TightSCF
%maxcore 5000
%tddft
    Mode sTDDFT
    Ethresh 5.0
    maxcore 5000
end

%pal
  nprocs 6
  end
* xyz 0 1
   C       -6.36231        -3.90417         5.13032
   N       -6.65179        -3.71805         3.87181
   N       -5.94015        -4.23545         2.90449
   C       -4.87373        -4.98726         3.11756
   C       -4.46142        -5.26009         4.45335
   C       -5.24896        -4.68670         5.50481
   N       -4.77674        -5.00222         6.71071
   S       -3.47617        -5.92529         6.52719
   N       -3.44167        -5.97435         4.91978
   C       -4.18407        -5.48702         1.97238
   C       -3.05542        -6.28147         1.92675
   C       -2.67796        -6.55335         0.61339
   C       -3.53610        -5.95453        -0.33550
   S       -4.79884        -5.06468         0.38771
   C       -3.06827        -6.27712        -1.63290
   C       -1.91532        -7.07885        -1.50333
   C       -1.63606        -7.27911        -0.08903
   C       -0.60913        -7.99480         0.45455
   C        0.34969        -8.65893        -0.33923
   N        1.13645        -9.20376        -0.97126
   C       -0.43272        -8.11987         1.84874
   N       -0.27910        -8.22848         2.97995
   C       -1.36696        -7.44076        -2.72503
   C       -2.08797        -6.92314        -3.79507
   S       -3.47300        -5.97650        -3.26473
   C       -1.81829        -7.06007        -5.18335
   C       -0.71604        -7.78078        -5.71662
   C       -0.48116        -7.83430        -7.12981
   N        0.57914        -8.50964        -7.60834
   C        1.38168        -9.11627        -6.78004
   C        1.14492        -9.07297        -5.39163
   N        0.13116        -8.42457        -4.89040
   C       -1.31376        -7.19904        -8.08345
   C       -2.42505        -6.50788        -7.55730
   C       -2.65882        -6.44536        -6.13575
   N       -3.75269        -5.73641        -5.84797
   S       -4.41694        -5.20860        -7.21123
   N       -3.36218        -5.84123        -8.23522
   C       -1.00973        -7.25934        -9.46637
   C       -1.73611        -6.68728       -10.50474
   C       -1.14310        -6.91665       -11.73781
   C        0.04640        -7.66854       -11.64127
   S        0.42422        -8.09973       -10.02652
   C        0.57499        -7.83010       -12.94540
   C       -0.28108        -7.18327       -13.86417
   C       -1.38790        -6.59183       -13.13508
   C       -2.43339        -5.87941       -13.64644
   C       -2.56716        -5.62470       -15.02762
   N       -2.68613        -5.41277       -16.14824
   C       -3.45243        -5.34498       -12.83012
   N       -4.28815        -4.90651       -12.17868
   C        0.16845        -7.28011       -15.17901
   C        1.35139        -7.98921       -15.25593
   S        1.92458        -8.55087       -13.69943
   C        2.13044        -8.29374       -16.41220
   N        3.24839        -8.97576       -16.23021
   N        4.04705        -9.30910       -17.21043
   C        3.80127        -8.99239       -18.45206
   C        2.64081        -8.26502       -18.79329
   C        1.75720        -7.89385       -17.72745
   N        0.70032        -7.21472       -18.16265
   S        0.81335        -7.06139       -19.75984
   N        2.19873        -7.84292       -19.97785
   H       -7.00608        -3.43719         5.85901
   H       -2.55616        -6.62641         2.81430
   H       -0.49093        -8.04392        -2.87333
   H        2.22050        -9.64654        -7.20737
   H        1.79140        -9.57512        -4.68569
   H       -2.64263        -6.13748       -10.33012
   H       -0.31443        -6.86746       -16.04649
   H        4.51802        -9.30925       -19.19325
*
