# ORCA input file
# SCF done       -209.832793357254          0.000720305242
! CAM-B3LYP def2-SVP def2/J RIJCOSX Grid4 TightSCF
%maxcore 5000
%tddft
    Mode sTDDFT
    Ethresh 5.0
    maxcore 5000
end

%pal
  nprocs 6
  end
* xyz 0 1
   C       -4.79871         0.49715        -7.89094
   C       -5.06196         0.38923        -9.22789
   F       -4.98871         1.46757       -10.01748
   C       -5.41323        -0.85405        -9.79177
   F       -5.66708        -0.93025       -11.10436
   C       -5.49538        -1.97282        -9.01064
   C       -5.22943        -1.89379        -7.62989
   C       -4.87519        -0.63727        -7.05832
   C       -4.60498        -0.53236        -5.67436
   C       -4.68584        -1.64938        -4.88550
   C       -5.04114        -2.89942        -5.46611
   C       -5.30747        -3.03302        -6.79846
   C       -5.06267        -3.92799        -4.41448
   O       -5.31571        -5.11170        -4.56411
   C       -4.72973        -3.24351        -3.16072
   C       -4.46847        -1.84510        -3.45343
   C       -4.06526        -0.87224        -2.57737
   C       -3.82519        -1.05056        -1.19798
   N       -3.60120        -1.11570        -0.07367
   C       -3.81632         0.46752        -2.94629
   N       -3.59658         1.56917        -3.18123
   C       -4.70937        -3.82589        -1.91935
   C       -4.93182        -5.15742        -1.53569
   C       -4.88992        -5.54907        -0.19126
   C       -5.11674        -6.90134        -0.02701
   C       -5.32774        -7.56156        -1.26094
   S       -5.26446        -6.51961        -2.60529
   C       -5.54169        -8.93613        -0.98554
   C       -5.46837        -9.14442         0.40235
   C       -5.20316        -7.87286         1.05360
   C       -5.07235        -7.64383         2.39128
   C       -5.18707        -8.68315         3.33881
   N       -5.28107        -9.53379         4.10174
   C       -4.82261        -6.35762         2.91613
   N       -4.62407        -5.31448         3.34735
   C       -5.66464       -10.47873         0.76261
   C       -5.88316       -11.28624        -0.33536
   S       -5.84733       -10.37908        -1.84187
   C       -6.11404       -12.70143        -0.35111
   C       -6.21546       -13.43459        -1.54597
   N       -6.41402       -14.72893        -1.57868
   C       -6.52145       -15.35921        -0.40528
   N       -6.45461       -14.76356         0.78940
   C       -6.25734       -13.46910         0.81894
   C       -6.72403       -16.77764        -0.41352
   C       -6.80714       -17.61482        -1.50857
   C       -7.00092       -18.93942        -1.11967
   C       -7.06406       -19.08803         0.28050
   S       -6.88302       -17.60888         1.11064
   C       -7.25551       -20.46156         0.57479
   C       -7.32108       -21.18019        -0.63506
   C       -7.16079       -20.24545        -1.73892
   C       -7.16187       -20.53597        -3.07071
   C       -7.34306       -21.85060        -3.55234
   N       -7.50125       -22.91415        -3.94945
   C       -6.99162       -19.54348        -4.06014
   N       -6.85351       -18.74593        -4.87161
   C       -7.52302       -22.54198        -0.44147
   C       -7.57489       -22.88082         0.90330
   S       -7.42113       -21.46250         1.93870
   C       -7.82744       -24.17573         1.41154
   C       -7.65063       -24.67006         2.66671
   C       -8.42350       -25.87273         3.09041
   O       -9.02876       -26.63322         2.37336
   C       -8.34175       -25.87955         4.56551
   C       -8.98261       -26.69165         5.45621
   C       -8.77291       -26.49396         6.83951
   C       -7.90343       -25.45130         7.27447
   C       -7.70633       -25.25510         8.65616
   C       -8.33952       -26.05768         9.56317
   C       -9.19763       -27.08971         9.13199
   C       -9.41030       -27.30456         7.79908
   F       -9.80611       -27.85956        10.04329
   F       -8.15066       -25.87002        10.87525
   C       -7.24651       -24.63119         6.32878
   C       -7.45865       -24.84705         4.99378
   C       -6.90006       -24.19835         3.81093
   C       -5.71349       -23.51457         3.77134
   C       -5.06661       -23.16455         2.56822
   N       -4.50013       -22.90328         1.60470
   C       -4.96951       -23.17239         4.91857
   N       -4.33852       -22.85986         5.82461
   H       -4.53104         1.45614        -7.47547
   H       -5.76541        -2.91668        -9.45777
   H       -4.34272         0.43364        -5.27498
   H       -5.57444        -3.99382        -7.21164
   H       -4.49438        -3.17820        -1.07797
   H       -4.69809        -4.84941         0.60309
   H       -5.64200       -10.84369         1.77270
   H       -6.12771       -12.94417        -2.50839
   H       -6.21588       -13.02311         1.80329
   H       -6.72537       -17.25025        -2.51590
   H       -7.60386       -23.27484        -1.22393
   H       -8.31160       -24.85548         0.71576
   H       -9.64025       -27.47465         5.11070
   H       -7.04979       -24.47255         9.00313
   H      -10.07004       -28.09830         7.48533
   H       -6.59974       -23.84409         6.68281
*
