# ORCA input file
# SCF done       -178.716091815692          0.000599797488
! CAM-B3LYP def2-SVP def2/J RIJCOSX Grid4 TightSCF
%maxcore 5000
%tddft
    Mode sTDDFT
    Ethresh 5.0
    maxcore 5000
end

%pal
  nprocs 6
  end
* xyz 0 1
   C       -4.53909        -1.65010        -2.14186
   O       -4.77434        -1.81553        -0.95730
   C       -5.27366        -0.76515        -3.06979
   C       -4.76537        -0.92681        -4.37104
   C       -5.32391        -0.21615        -5.41939
   C       -6.37994         0.64795        -5.14947
   C       -6.87456         0.80428        -3.85454
   C       -6.32082         0.08956        -2.79969
  Br       -8.30683         1.99039        -3.51468
  Br       -7.14676         1.61715        -6.58148
   C       -3.66613        -1.89048        -4.32812
   C       -2.85645        -2.22349        -5.38206
   C       -3.01734        -1.71922        -6.68989
   N       -3.10626        -1.34472        -7.77112
   C       -1.73776        -3.08034        -5.30287
   N       -0.80173        -3.74500        -5.31552
   C       -3.54442        -2.34835        -2.96034
   C       -2.76275        -3.39465        -2.52728
   C       -2.48161        -3.79490        -1.21715
   C       -2.39649        -3.08860        -0.01362
   C       -2.00915        -3.90442         1.06955
   O       -1.74446        -3.49636         2.32433
   C       -2.14314        -2.18871         2.67563
   C       -1.64538        -1.15849         1.67663
   S       -2.56922        -1.36264         0.11108
   C       -1.82284        -5.24412         0.71284
   S       -1.97881        -5.46594        -0.99692
   C       -1.53634        -6.35982         1.54558
   C       -1.04806        -7.54970         0.95093
   C       -0.67266        -8.69541         1.71672
   N       -0.23100        -9.78946         1.08159
   C       -0.15900        -9.80476        -0.22141
   C       -0.51650        -8.66967        -0.97387
   N       -0.94129        -7.58584        -0.38630
   C       -0.77482        -8.74175         3.13192
   C       -1.38601        -7.60750         3.70965
   C       -1.76527        -6.43936         2.93605
   N       -2.40529        -5.54643         3.69023
   S       -2.51370        -6.08603         5.19027
   N       -1.76295        -7.48957         4.97953
   C       -0.37870        -9.91533         3.82199
   C       -0.28707       -10.19080         5.19132
   C        0.06656       -11.53164         5.45748
   O        0.20066       -12.13451         6.65088
   C       -0.15724       -11.39902         7.80249
   C        0.42091        -9.99864         7.76519
   S       -0.44956        -9.01984         6.48152
   C        0.26222       -12.28785         4.30110
   S        0.06937       -11.30208         2.87042
   C        0.68259       -13.62906         4.29045
   C        0.74503       -14.48424         3.22581
   C        1.66821       -15.64276         3.25539
   O        2.22479       -16.12061         4.21605
   C        1.81410       -16.04452         1.83430
   C        0.95417       -15.26881         1.03439
   C        0.16574       -14.39977         1.90506
   C       -1.04480       -13.84236         1.58458
   C       -1.93800       -13.34377         2.55740
   N       -2.72175       -13.00568         3.32460
   C       -1.55159       -13.76715         0.27394
   N       -1.96953       -13.63975        -0.78784
   C        0.94011       -15.44504        -0.33795
   C        1.78862       -16.39621        -0.89340
   C        2.62895       -17.17175        -0.09299
   C        2.64513       -16.99836         1.28570
  Br        3.76128       -18.46846        -0.87438
  Br        1.78762       -16.62666        -2.77019
   H       -4.97174        -0.31523        -6.43338
   H       -6.69836         0.19960        -1.79510
   H       -2.33975        -4.04663        -3.28213
   H       -1.70680        -2.02142         3.66368
   H       -3.23683        -2.13660         2.75099
   H       -0.58035        -1.28359         1.48178
   H       -1.84513        -0.14645         2.01942
   H        0.18140       -10.71915        -0.68440
   H       -0.45610        -8.65224        -2.05190
   H        0.24538       -11.97471         8.64013
   H       -1.25039       -11.35149         7.89095
   H        1.48699       -10.02337         7.53986
   H        0.25104        -9.47515         8.70233
   H        1.09254       -14.00204         5.22358
   H        0.30144       -14.86233        -0.98240
   H        3.29185       -17.59332         1.91175
*
