# ORCA input file
# SCF done       -208.919067555572          0.000937734008
! CAM-B3LYP def2-SVP def2/J RIJCOSX Grid4 TightSCF
%maxcore 5000
%tddft
    Mode sTDDFT
    Ethresh 5.0
    maxcore 5000
end

%pal
  nprocs 6
  end
* xyz 0 1
   C        1.76126         1.35696         0.83889
   C        2.44517         2.38587         1.43347
   C        3.12083         2.26855         2.66640
   N        3.69269         2.22429         3.66013
   C        2.63283         3.64778         0.83866
   N        2.82227         4.68152         0.37568
   C        1.74640        -0.02194         1.31756
   C        1.39819        -0.87668         0.23083
   C        1.33711        -2.23272         0.37577
   C        1.61191        -2.80305         1.63913
   C        1.93959        -1.95206         2.73442
   C        2.00470        -0.55109         2.55292
   C        2.19902        -2.53377         3.99184
   C        2.14174        -3.89053         4.16078
   C        1.82118        -4.72757         3.08161
   C        1.56238        -4.19546         1.84758
   C        1.11663        -0.05793        -0.95931
   O        0.84675        -0.42606        -2.07926
   C        1.16892         1.35735        -0.48223
   C        0.60594         2.31961        -1.26293
   C        0.17924         3.61982        -0.91411
   C       -0.07257         4.15602         0.34085
   C       -0.52019         5.46855         0.27084
   C       -0.62615         5.94367        -1.05210
   S       -0.18352         4.76796        -2.19830
   C       -1.07996         7.28603        -1.01083
   C       -1.24632         7.66123         0.33655
   C       -0.89553         6.53421         1.18477
   C       -0.89765         6.48070         2.54759
   C       -1.27790         7.58021         3.34589
   N       -1.59642         8.47044         3.99419
   C       -0.52284         5.30734         3.23609
   N       -0.22887         4.34276         3.78232
   C       -1.69839         8.96872         0.48193
   C       -1.89191         9.59085        -0.74103
   S       -1.49413         8.53528        -2.08941
   C       -2.37545        10.92099        -0.95154
   C       -2.68055        11.43856        -2.20485
   F       -2.49851        10.67874        -3.30046
   C       -3.19371        12.72210        -2.41269
   F       -3.45690        13.06586        -3.68671
   C       -3.43915        13.63216        -1.39133
   C       -3.11376        13.15325        -0.08970
   C       -2.60109        11.82520         0.12594
   N       -2.37795        11.59146         1.41713
   S       -2.76747        12.89002         2.27313
   N       -3.24164        13.81925         1.05555
   C       -3.98732        14.93619        -1.60803
   C       -4.16631        15.92377        -0.65252
   C       -4.75222        17.06704        -1.18618
   C       -5.03013        16.94699        -2.56132
   S       -4.55249        15.43982        -3.19413
   C       -5.64410        18.14438        -3.00174
   C       -5.74164        19.03076        -1.90613
   C       -5.19420        18.37555        -0.72861
   C       -5.12929        18.86481         0.54201
   C       -5.63303        20.13386         0.90281
   N       -6.04821        21.15041         1.23122
   C       -4.57252        18.11768         1.60286
   N       -4.12037        17.51840         2.46946
   C       -6.32392        20.24709        -2.23831
   C       -6.68745        20.30372        -3.57757
   S       -6.30006        18.80038        -4.42475
   C       -7.36284        21.29055        -4.32585
   C       -7.56252        22.61250        -4.04324
   C       -8.39347        23.50096        -4.83732
   C       -9.36067        23.12320        -5.73289
   C      -10.16241        24.03089        -6.45601
   N      -10.83953        24.71690        -7.07962
   C       -9.72255        21.79122        -6.02410
   N      -10.08855        20.73504        -6.28860
   C       -8.09452        24.86964        -4.43854
   C       -7.16594        24.83122        -3.36011
   C       -6.82919        23.43306        -3.04332
   O       -6.06144        23.05668        -2.18393
   C       -6.70055        25.96906        -2.76673
   C       -7.15148        27.22313        -3.23598
   C       -8.07683        27.27072        -4.31866
   C       -8.54110        26.07467        -4.91264
   C       -8.51669        28.52769        -4.78103
   C       -8.06589        29.68315        -4.20291
   C       -7.15463        29.63515        -3.13740
   C       -6.70776        28.43136        -2.66367
   H        1.07936        -2.86338        -0.46205
   H        2.24270         0.07190         3.40094
   H        2.44826        -1.88553         4.81894
   H        2.34358        -4.32660         5.12762
   H        1.77959        -5.79584         3.23284
   H        1.31443        -4.83479         1.01294
   H        0.39328         2.00712        -2.28130
   H        0.02360         3.59190         1.25030
   H       -1.88904         9.46760         1.41377
   H       -3.87713        15.78476         0.37236
   H       -6.48426        21.06137        -1.55661
   H       -7.75717        20.92710        -5.26825
   H       -5.99840        25.91189        -1.94829
   H       -9.23497        26.14365        -5.73538
   H       -9.21943        28.55942        -5.60071
   H       -8.40948        30.64101        -4.56371
   H       -6.80843        30.55670        -2.69389
   H       -6.00644        28.38798        -1.84331
*
