# ORCA input file
# SCF done       -201.031842752046          0.000894036243
! CAM-B3LYP def2-SVP def2/J RIJCOSX Grid4 TightSCF
%maxcore 5000
%tddft
    Mode sTDDFT
    Ethresh 5.0
    maxcore 5000
end

%pal
  nprocs 6
  end
* xyz 0 1
   C        3.22318         8.17122         6.48296
   C        2.01775         8.78244         6.71185
   C        1.87091         9.96844         7.45814
   N        1.70528        10.94565         8.03704
   C        0.78645         8.23817         6.29372
   N       -0.23048         7.79623         5.99568
   C        4.48337         8.52469         7.12477
   C        5.34012         7.38505         7.09242
   C        6.58077         7.40770         7.66130
   C        7.03214         8.59369         8.28399
   C        6.18718         9.74124         8.30120
   C        4.90229         9.68638         7.71393
   C        6.65479        10.92034         8.91596
   C        7.89566        10.96542         9.49076
   C        8.72584         9.83470         9.47614
   C        8.30320         8.67434         8.88626
   C        4.67105         6.29097         6.36423
   O        5.06195         5.16146         6.18348
   C        3.42026         6.89803         5.82158
   C        2.76853         6.28964         4.79525
   C        1.86938         6.84697         3.85515
   C        1.01585         6.14055         3.02204
   C        0.29635         6.97506         2.17143
   C        0.63354         8.33233         2.33161
   S        1.81395         8.57892         3.52801
   C       -0.14044         9.10194         1.42851
   C       -0.97198         8.23848         0.70036
   C       -0.72230         6.87220         1.13757
   C       -1.31478         5.73688         0.66968
   C       -2.29447         5.77084        -0.34517
   N       -3.08576         5.79577        -1.17451
   C       -0.98049         4.45581         1.15852
   N       -0.70863         3.41134         1.54479
   C       -1.78663         8.91585        -0.21080
   C       -1.58533        10.28170        -0.18200
   S       -0.36269        10.73442         0.99430
   C       -2.23546        11.30413        -0.96616
   C       -1.93436        12.66089        -0.72176
   C       -2.50850        13.69084        -1.42493
   C       -3.42371        13.35299        -2.41674
   C       -3.72973        11.99337        -2.66439
   C       -3.15623        10.95865        -1.96159
   O       -4.63773        11.95987        -3.67145
   C       -4.84040        13.27106        -3.98613
   N       -4.15139        14.11824        -3.27792
   C       -5.74553        13.63288        -5.02040
   C       -6.02264        14.92485        -5.42615
   C       -6.95087        14.94162        -6.46478
   C       -7.37372        13.65163        -6.83873
   S       -6.62965        12.42239        -5.91495
   C       -8.31255        13.77252        -7.89395
   C       -8.48026        15.14319        -8.18950
   C       -7.63884        15.92050        -7.29348
   C       -7.52715        17.27669        -7.22573
   C       -8.27323        18.15608        -8.04193
   N       -8.87285        18.90161        -8.67268
   C       -6.66240        17.91428        -6.30889
   N       -5.96260        18.44550        -5.57274
   C       -9.37094        15.37429        -9.22933
   C       -9.89802        14.19499        -9.73907
   S       -9.26778        12.77754        -8.88536
   C      -10.85567        13.93362       -10.74205
   C      -11.43434        14.76046       -11.66388
   C      -12.49710        14.34851       -12.57006
   C      -13.22094        13.18491       -12.51812
   C      -14.25121        12.85580       -13.42502
   N      -15.09511        12.51964       -14.12692
   C      -13.08258        12.15908       -11.55957
   N      -13.05120        11.28725       -10.81187
   C      -12.72258        15.43131       -13.51973
   C      -11.85841        16.51119       -13.18595
   C      -11.03813        16.14867       -12.02044
   O      -10.18691        16.84345       -11.50700
   C      -11.85039        17.67999       -13.89123
   C      -12.72816        17.82622       -14.98795
   C      -13.59349        16.74830       -15.33454
   C      -13.57627        15.54945       -14.58529
   C      -14.46470        16.90407       -16.43201
   C      -14.48299        18.06784       -17.15159
   C      -13.63091        19.12840       -16.80878
   C      -12.77195        19.01019       -15.74989
   H        7.21248         6.53226         7.63643
   H        4.28339        10.57014         7.73195
   H        6.01014        11.78692         8.92783
   H        8.24414        11.87286         9.96069
   H        9.70205         9.88772         9.93432
   H        8.93848         7.80085         8.87209
   H        3.03904         5.25225         4.62142
   H        0.91701         5.07109         3.07095
   H       -2.49583         8.43193        -0.85591
   H       -1.22189        12.89464         0.05583
   H       -2.26928        14.72185        -1.22640
   H       -3.40940         9.93523        -2.17970
   H       -5.55559        15.77715        -4.96898
   H       -9.62933        16.34095        -9.62197
   H      -11.16517        12.89521       -10.76795
   H      -11.18451        18.48270       -13.61131
   H      -14.24098        14.75273       -14.87834
   H      -15.11994        16.08556       -16.69161
   H      -15.15512        18.17787       -17.98935
   H      -13.65867        20.03933       -17.38775
   H      -12.11353        19.82295       -15.48046
*
