# ORCA input file
# SCF done       -181.420174799766          0.000991191307
! CAM-B3LYP def2-SVP def2/J RIJCOSX Grid4 TightSCF
%maxcore 5000
%tddft
    Mode sTDDFT
    Ethresh 5.0
    maxcore 5000
end

%pal
  nprocs 6
  end
* xyz 0 1
   C        2.23578        -6.77038        -8.05075
   O        1.28066        -6.78205        -8.78818
   C        3.65565        -6.87508        -8.43838
   C        4.47705        -6.67664        -7.31324
   C        5.85772        -6.74988        -7.45600
   C        6.38625        -7.01234        -8.70897
   C        5.55498        -7.19629        -9.80969
   C        4.17279        -7.12939        -9.69225
  Br        6.32989        -7.54706       -11.50337
   C        3.63894        -6.40872        -6.15173
   C        4.09184        -6.04845        -4.91267
   C        5.45971        -5.92108        -4.57687
   N        6.54712        -5.79461        -4.23511
   C        3.29925        -5.70333        -3.79768
   N        2.75177        -5.38640        -2.83902
   C        2.24683        -6.56347        -6.56855
   C        1.16856        -6.47094        -5.75730
   C       -0.21553        -6.70564        -6.08000
   C       -0.67696        -7.64119        -6.94303
   C       -2.05311        -7.93639        -7.19112
   C       -2.37367        -8.94946        -8.09025
   C       -3.69295        -9.37062        -8.33059
   N       -4.75572        -9.76522        -8.51236
   C       -1.38414        -9.66539        -8.78517
   N       -0.57703       -10.26538        -9.34048
   C       -3.08473        -7.25316        -6.48771
   C       -2.87115        -6.30468        -5.53485
   S       -1.27847        -5.71083        -5.09953
   C       -3.91924        -5.75397        -4.74113
   C       -5.30409        -5.92012        -4.84998
   C       -6.02701        -5.34866        -3.74205
   N       -7.35325        -5.48627        -3.64393
   C       -7.96404        -6.11148        -4.62352
   C       -9.43356        -6.32434        -4.48149
   O      -10.03748        -6.01338        -3.48204
   C      -10.08306        -6.96832        -5.63893
   C       -9.43152        -7.34714        -6.74270
   C       -7.98440        -7.14889        -6.94720
   O       -7.43033        -7.38929        -7.99354
   C       -7.25806        -6.58443        -5.77280
   N       -5.95108        -6.50742        -5.86175
   C       -5.18833        -4.71718        -2.81806
   S       -3.54352        -4.83222        -3.33264
   C       -5.47885        -4.18746        -1.53038
   C       -6.68799        -4.26365        -0.91637
   C       -6.89659        -3.95770         0.46234
   C       -8.18051        -3.85073         0.97677
   C       -8.41625        -3.62470         2.34461
   N       -8.60671        -3.44689         3.46299
   C       -9.33325        -3.87743         0.17001
   N      -10.29288        -3.86575        -0.45887
   C       -5.77049        -3.86221         1.34572
   C       -4.48158        -3.74209         0.94916
   S       -4.07115        -3.47827        -0.74051
   C       -3.37685        -3.72729         1.87061
   C       -2.09546        -4.09866         1.65266
   C       -1.03713        -3.64545         2.61629
   O       -1.21489        -3.22155         3.72888
   C        0.22981        -3.77684         1.86953
   C       -0.01109        -4.40744         0.63204
   C       -1.41979        -4.76724         0.55001
   C       -1.94583        -5.72990        -0.26729
   C       -1.23862        -6.36267        -1.31093
   N       -0.74264        -6.88817        -2.20293
   C       -3.25670        -6.23565        -0.12943
   N       -4.30339        -6.69621        -0.03017
   C        1.03774        -4.61408        -0.25254
   C        2.30745        -4.19762         0.11221
   C        2.52907        -3.58934         1.34265
   C        1.49355        -3.36603         2.24245
  Br        4.28765        -3.04681         1.80228
   H        6.52291        -6.61167        -6.61982
   H        7.45609        -7.07449        -8.83588
   H        3.51905        -7.27476       -10.53825
   H        1.32225        -6.17105        -4.72726
   H        0.04453        -8.25215        -7.46662
   H       -4.11119        -7.53047        -6.69308
   H      -11.14899        -7.11940        -5.53414
   H       -9.94839        -7.81312        -7.57062
   H       -7.52211        -4.64735        -1.49043
   H       -5.97026        -3.95389         2.40572
   H       -3.58302        -3.31792         2.85506
   H        0.89571        -5.07467        -1.21617
   H        3.12718        -4.35165        -0.57233
   H        1.66177        -2.89284         3.19739
*
