# ORCA input file
# SCF done       -192.209697275458          0.000597881634
! CAM-B3LYP def2-SVP def2/J RIJCOSX Grid4 TightSCF
%maxcore 5000
%tddft
    Mode sTDDFT
    Ethresh 5.0
    maxcore 5000
end

%pal
  nprocs 6
  end
* xyz 0 1
   C        4.42677         3.17365         0.94572
   C        4.66400         2.01806         0.24748
   C        5.88441         1.31059         0.28443
   N        6.84785         0.68644         0.27138
   C        3.74088         1.35402        -0.58692
   N        3.04788         0.75329        -1.27880
   C        5.37926         3.83118         1.83504
   C        4.74060         4.95468         2.43447
   C        5.38733         5.77129         3.31661
   C        6.73407         5.49888         3.64499
   C        7.38226         4.37855         3.04955
   C        6.68414         3.54937         2.14100
   C        8.72686         4.11722         3.38182
   C        9.40066         4.92313         4.25909
   C        8.76160         6.02629         4.84403
   C        7.45621         6.30783         4.54390
   C        3.36183         5.04653         1.93714
   O        2.52754         5.87479         2.26120
   C        3.19851         3.94925         0.97145
   C        2.09627         3.73692         0.18842
   C        0.87739         4.43763         0.13235
   S        0.37306         5.77781         1.12997
   C       -1.15125         5.88352         0.31208
   C       -1.25536         4.91276        -0.69857
   C       -0.11957         4.11008        -0.78160
   C       -2.36228         4.71950        -1.54321
   N       -3.24484         4.52579        -2.25083
   C       -2.06389         6.88483         0.71946
   C       -3.23985         7.18853         0.11026
   C       -4.12991         8.20301         0.53803
   S       -5.51529         8.57054        -0.48298
   C       -6.01855         9.79336         0.61756
   C       -5.14321         9.88651         1.73095
   C       -4.07978         8.99166         1.67818
   N       -5.57572        10.87211         2.57875
   C       -4.98161        11.23792         3.83440
   C       -6.71635        11.40249         2.03556
   C       -7.00750        10.75255         0.80570
   S       -8.41081        11.40634         0.06067
   C       -8.60942        12.54181         1.39566
   C       -7.62313        12.40144         2.36514
   C       -9.68486        13.45164         1.33823
   C      -10.01536        14.34743         2.31225
   C      -11.07235        15.27832         2.20588
   C      -11.89868        15.54874         1.13043
   C      -12.78331        16.59998         1.47001
   C      -12.47899        16.96142         2.87381
   C      -11.45886        16.17323         3.29219
   C      -13.13914        17.89994         3.67605
   N      -13.65786        18.63211         4.39318
   C      -13.71436        17.21361         0.65901
   C      -14.50687        18.35354         0.97588
   C      -15.27703        18.68759        -0.12021
   C      -15.00487        17.71161        -1.16506
   C      -14.05650        16.84307        -0.72222
   C      -13.52156        15.78230        -1.45985
   N      -13.09493        14.91707        -2.08455
   C      -16.23769        19.71688        -0.28240
   C      -16.35396        20.88505         0.41508
   C      -17.45040        21.82942         0.29170
   C      -18.64759        21.61490        -0.34311
   C      -19.68570        22.56723        -0.41422
   N      -20.56716        23.29607        -0.51603
   C      -19.03114        20.42611        -0.99816
   N      -19.42996        19.49391        -1.53837
   C      -17.09346        23.03393         1.03151
   C      -15.81405        22.83844         1.62293
   C      -15.30105        21.50347         1.26963
   O      -14.21198        21.05801         1.55619
   C      -15.21804        23.79492         2.39273
   C      -15.89151        25.01659         2.61510
   C      -17.16936        25.22495         2.02037
   C      -17.75874        24.21619         1.22421
   C      -17.83074        26.44956         2.24528
   C      -17.26069        27.42081         3.02238
   C      -16.00336        27.21348         3.60919
   C      -15.33342        26.03697         3.40986
   H        4.87865         6.61647         3.75621
   H        7.20616         2.71212         1.70626
   H        9.21479         3.26659         2.92914
   H       10.43060         4.71466         4.50680
   H        9.30843         6.65209         5.53333
   H        6.95870         7.15605         4.99109
   H        2.14486         2.92025        -0.52180
   H       -0.01447         3.30570        -1.48950
   H       -1.75005         7.45368         1.58431
   H       -3.53477         6.64792        -0.77765
   H       -3.31329         8.89875         2.42456
   H       -3.90990        11.04865         3.79673
   H       -5.41373        10.66274         4.65876
   H       -5.14724        12.29849         4.01992
   H       -7.57872        13.00808         3.25025
   H      -10.28385        13.41641         0.43895
   H       -9.44870        14.36628         3.23350
   H      -11.86869        15.07354         0.17067
   H      -11.00278        16.18173         4.26560
   H      -14.49779        18.85195         1.92322
   H      -15.47381        17.70776        -2.13219
   H      -16.94872        19.53698        -1.08097
   H      -14.24760        23.61687         2.83163
   H      -18.72451        24.40810         0.78460
   H      -18.79938        26.60400         1.79284
   H      -17.77616        28.35465         3.19002
   H      -15.56854        27.99068         4.21987
   H      -14.36516        25.87084         3.85903
*
