# ORCA input file
# SCF done       -228.247847359100          0.000850410953
! CAM-B3LYP def2-SVP def2/J RIJCOSX Grid4 TightSCF
%maxcore 5000
%tddft
    Mode sTDDFT
    Ethresh 5.0
    maxcore 5000
end

%pal
  nprocs 6
  end
* xyz 0 1
   C        2.35844         4.17687        -0.85829
   C        1.25764         3.88899        -1.61615
   F        0.46257         4.88879        -2.03679
   C        0.91598         2.57839        -1.97826
   C        1.71133         1.54802        -1.56074
   C        2.85972         1.78734        -0.77774
   C        3.18847         3.12765        -0.41746
   C        4.32959         3.39257         0.37406
   C        5.11431         2.35048         0.78746
   C        4.79245         1.01336         0.40912
   C        3.69291         0.73012        -0.35012
   C        5.81640         0.09359         0.93391
   O        5.85257        -1.11301         0.87294
   C        6.86155         0.98346         1.51888
   C        6.31416         2.32523         1.61188
   C        6.71967         3.29946         2.48188
   C        7.75270         3.11561         3.42378
   N        8.55325         2.98780         4.23685
   C        6.10028         4.56274         2.58619
   N        5.63220         5.60329         2.70491
   C        8.11433         0.52115         1.73051
   C        9.31024         1.27417         1.94589
   C        9.79831         2.38197         1.26130
   N        9.23576         3.06785         0.17507
   O        9.92708         3.91018        -0.37328
   O        8.09771         2.78937        -0.18287
   C       11.11015         2.70905         1.75869
   C       11.44993         1.80420         2.70649
   C       10.37097         0.86286         2.85996
   C       10.27203        -0.15599         3.79234
   C        9.07166        -0.64409         4.36819
   C        9.38112        -1.41036         5.46399
   C       10.79205        -1.50072         5.58797
   N       11.42546        -2.26539         6.57752
   O       10.71386        -2.84493         7.38007
   O       12.64865        -2.31168         6.59367
   C       11.39124        -0.78483         4.53291
   C       12.73663        -0.79727         4.18597
   C       13.25058        -0.46611         2.94343
   C       14.60308        -0.34864         2.66856
   S       15.82225        -0.49437         3.90084
   C       17.10643        -0.06285         2.81404
   C       16.61460         0.09816         1.49019
   C       15.20237        -0.03414         1.41439
   C       14.54141         0.13708         0.19541
   C       15.26148         0.39525        -0.95249
   C       14.58385         0.58907        -2.26845
   C       16.66461         0.45095        -0.88133
   C       17.33720         0.30342         0.30493
   C       18.37829         0.13221         3.36796
   C       19.41044         0.83774         2.80541
   C       20.65421         1.06854         3.41861
   C       21.65088         1.88805         2.90330
   C       22.74643         1.91841         3.79683
   C       22.37736         1.03615         4.92149
   C       21.13501         0.54007         4.68697
   C       23.15348         0.75195         6.05168
   N       23.76337         0.50257         6.99242
   C       23.91671         2.64273         3.67188
   C       25.00641         2.70034         4.57741
   C       25.96347         3.57068         4.08890
   C       25.48143         4.09127         2.81680
   C       24.26658         3.54376         2.55581
   C       23.49541         3.80596         1.41815
   N       22.88043         4.04086         0.47669
   C       27.19947         3.86475         4.70910
   C       28.09525         4.79025         4.26737
   C       29.32372         5.09764         4.90113
   C       30.10517         4.34494         5.72642
   C       31.11670         5.04705         6.57469
   O       31.47089         6.19711         6.46016
   C       31.52772         4.06039         7.58705
   C       32.33497         4.23052         8.67523
   C       32.57139         3.13515         9.53489
   C       31.95477         1.88061         9.25339
   C       32.18749         0.79493        10.11960
   C       33.00044         0.96552        11.20585
   C       33.61711         2.19012        11.49851
   C       33.40035         3.25516        10.66941
   F       33.22570        -0.06965        12.03260
   C       31.12672         1.73241         8.11615
   C       30.92460         2.80420         7.28927
   C       30.15826         2.93551         6.05138
   C       29.78756         1.88822         5.24797
   C       29.23068         2.03305         3.96235
   N       28.78877         2.09445         2.90479
   C       29.99348         0.53277         5.58160
   N       30.13375        -0.58458         5.80215
   H        2.59004         5.19748        -0.59671
   H        0.03520         2.41249        -2.57814
   H        1.46891         0.53046        -1.82800
   H        4.56651         4.41515         0.62158
   H        3.46265        -0.28856        -0.62461
   H        8.23001        -0.55885         1.69145
   H       11.67705         3.55216         1.41420
   H       12.32347         1.83106         3.32722
   H        8.08477        -0.34668         4.07240
   H        8.69180        -1.87571         6.14374
   H       13.42383        -1.16221         4.94145
   H       12.56761        -0.29807         2.12283
   H       13.46619         0.05915         0.14940
   H       14.90850        -0.17342        -2.97553
   H       14.84879         1.55888        -2.68715
   H       13.50350         0.53605        -2.16807
   H       17.22270         0.61047        -1.79176
   H       18.41414         0.31408         0.31360
   H       18.50343        -0.24217         4.37586
   H       19.26627         1.32530         1.85241
   H       21.59531         2.42576         1.97727
   H       20.59807        -0.13393         5.32764
   H       25.07060         2.15347         5.49779
   H       26.00945         4.77946         2.18474
   H       27.40439         3.32490         5.62573
   H       27.83435         5.41011         3.42093
   H       29.68799         6.11239         4.76069
   H       32.78737         5.18970         8.87766
   H       31.73205        -0.16314         9.92347
   H       34.24779         2.26489        12.37010
   H       33.86409         4.20831        10.87411
   H       30.66440         0.77512         7.93461
*
