# ORCA input file
# SCF done       -251.584315490574          0.000578436486
! CAM-B3LYP def2-SVP def2/J RIJCOSX Grid4 TightSCF
%maxcore 5000
%tddft
    Mode sTDDFT
    Ethresh 5.0
    maxcore 5000
end

%pal
  nprocs 6
  end
* xyz 0 1
   C      -12.87969        -3.65188        -4.12575
   C      -12.57172        -3.99454        -5.41339
   F      -12.99701        -3.23788        -6.42887
   C      -11.80961        -5.14875        -5.68743
   F      -11.52375        -5.46898        -6.95691
   C      -11.37651        -5.94976        -4.66992
   C      -11.71981        -5.64833        -3.33837
   C      -12.46846        -4.46957        -3.05399
   C      -12.81247        -4.14655        -1.72014
   C      -12.47482        -5.01177        -0.71191
   C      -11.80606        -6.23024        -1.02334
   C      -11.39861        -6.53603        -2.29121
   C      -11.76917        -7.08030         0.17077
   O      -11.44641        -8.25168         0.21353
   C      -12.35883        -6.27504         1.26531
   C      -12.72408        -4.97351         0.72636
   C      -13.15504        -3.89725         1.44569
   C      -13.23785        -3.89126         2.85607
   N      -13.26453        -3.83552         4.00114
   C      -13.49177        -2.65356         0.86745
   N      -13.76587        -1.62813         0.43386
   C      -12.68020        -6.82101         2.46417
   C      -12.29468        -8.15731         2.81265
   C      -13.14850        -9.19950         3.10011
   N      -14.55282        -9.09597         3.19896
   O      -15.16907       -10.09590         3.50837
   O      -15.05146        -8.00614         2.97793
   C      -12.40385       -10.43085         3.19192
   C      -11.10305       -10.16059         2.92641
   C      -10.95157        -8.73897         2.72663
   C       -9.76872        -8.03196         2.73554
   C       -9.57966        -6.71922         3.26368
   C       -8.24181        -6.51266         3.44798
   C       -7.52243        -7.64650         2.95966
   N       -6.11638        -7.70563         2.92204
   O       -5.59049        -8.68402         2.41525
   O       -5.50594        -6.76902         3.40229
   C       -8.42924        -8.58439         2.45460
   C       -8.14754        -9.69415         1.64222
   C       -9.03397       -10.13379         0.68651
   C       -8.82955       -11.12813        -0.27429
   S       -9.75569       -11.02916        -1.72814
   C       -8.96830       -12.39758        -2.45490
   C       -7.99771       -12.94711        -1.56277
   C       -7.93943       -12.23708        -0.32506
   C       -7.11114       -12.68439         0.70393
   C       -6.28330       -13.77414         0.49236
   C       -5.42937       -14.25313         1.59552
   O       -5.46233       -13.82204         2.71690
   C       -6.27056       -14.41263        -0.75817
   C       -7.11651       -14.02049        -1.76782
   C       -9.38034       -12.71596        -3.75160
   C       -9.03042       -13.82726        -4.48532
   C       -9.31175       -14.06454        -5.83462
   C       -8.48051       -14.84879        -6.65345
   N       -7.40708       -15.67681        -6.28517
   O       -6.80751       -16.24011        -7.18242
   O       -7.12929       -15.80614        -5.09880
   C       -8.78557       -14.57546        -8.01827
   C       -9.82635       -13.69458        -8.07885
   C      -10.30103       -13.43542        -6.75630
   C      -11.53866       -12.94172        -6.38855
   C      -12.08672       -12.96633        -5.05181
   C      -13.24859       -12.27879        -5.03560
   C      -13.51591       -11.79971        -6.37035
   N      -14.70021       -11.10096        -6.65497
   O      -14.99456       -10.87437        -7.81781
   O      -15.36935       -10.73169        -5.70058
   C      -12.52293       -12.23953        -7.23418
   C      -12.43861       -12.15050        -8.66371
   C      -12.68177       -11.14400        -9.53758
   C      -13.06000        -9.78527        -9.33428
   C      -12.99771        -8.97973        -8.24475
   C      -13.88220        -7.76860        -8.18320
   O      -14.37514        -7.18970        -9.11346
   C      -14.05312        -7.50512        -6.73569
   C      -14.88441        -6.62741        -6.10298
   C      -14.92613        -6.62186        -4.68896
   C      -14.16348        -7.57941        -3.95997
   C      -14.25280        -7.60658        -2.55458
   C      -15.00968        -6.67815        -1.89892
   C      -15.73270        -5.70466        -2.61575
   C      -15.70876        -5.68814        -3.98266
   F      -16.43344        -4.78558        -1.94166
   F      -15.04028        -6.66521        -0.55791
   C      -13.29235        -8.45788        -4.63878
   C      -13.20865        -8.38610        -6.00208
   C      -12.38340        -9.12423        -6.94837
   C      -11.14640        -9.64698        -6.67758
   C      -10.32163       -10.22248        -7.66349
   N       -9.62675       -10.70165        -8.44005
   C      -10.57578        -9.59415        -5.39673
   N      -10.09153        -9.56744        -4.35437
   H      -13.45017        -2.75620        -3.93546
   H      -10.78181        -6.82353        -4.88426
   H      -13.36156        -3.23788        -1.53072
   H      -10.87067        -7.45453        -2.50086
   H      -13.33861        -6.30083         3.14937
   H      -12.85139       -11.37761         3.42654
   H      -10.28384       -10.85110         2.97266
   H      -10.37316        -6.06803         3.57846
   H       -7.76853        -5.65156         3.88135
   H       -7.13426       -10.07152         1.67079
   H       -9.94214        -9.56129         0.55045
   H       -7.10566       -12.21301         1.67360
   H       -4.74311       -15.07146         1.30806
   H       -5.59651       -15.23985        -0.92158
   H       -7.07418       -14.54619        -2.70586
   H      -10.01416       -11.97038        -4.21236
   H       -8.37062       -14.55366        -4.03877
   H       -8.24695       -15.00124        -8.84410
   H      -10.22976       -13.29193        -8.98288
   H      -11.65980       -13.50433        -4.22989
   H      -13.91645       -12.11966        -4.21111
   H      -12.16833       -13.09854        -9.11336
   H      -12.63510       -11.41771       -10.58423
   H      -13.56141        -9.33016       -10.18320
   H      -15.50456        -5.95020        -6.66990
   H      -13.71062        -8.34997        -1.99147
   H      -16.28606        -4.95002        -4.51685
   H      -12.72363        -9.17545        -4.06813
*
