# ORCA input file
# SCF done       -232.976460052293          0.000760135251
! CAM-B3LYP def2-SVP def2/J RIJCOSX Grid4 TightSCF
%maxcore 5000
%tddft
    Mode sTDDFT
    Ethresh 5.0
    maxcore 5000
end

%pal
  nprocs 6
  end
* xyz 0 1
   C        0.03547         2.83976        -3.18559
   C        1.05515         3.37995        -2.45258
   F        1.71106         4.45500        -2.90316
   C        1.42936         2.81381        -1.21640
   F        2.43137         3.36397        -0.52124
   C        0.77857         1.71407        -0.73094
   C       -0.27467         1.13373        -1.46403
   C       -0.65535         1.70580        -2.71325
   C       -1.71005         1.14095        -3.46694
   C       -2.36241         0.03476        -2.98876
   C       -1.96898        -0.53261        -1.74319
   C       -0.95846        -0.00708        -0.98990
   C       -2.80015        -1.71196        -1.46652
   O       -2.73724        -2.43958        -0.49383
   C       -3.70476        -1.85669        -2.61882
   C       -3.46396        -0.75453        -3.53524
   C       -4.15234        -0.47131        -4.68421
   C       -3.86696         0.62907        -5.52228
   N       -3.68179         1.50276        -6.24237
   C       -5.24467        -1.21075        -5.18807
   N       -6.14088        -1.75707        -5.65287
   C       -4.56076        -2.90547        -2.80718
   C       -4.83066        -3.99817        -1.96160
   S       -4.25560        -4.27712        -0.33942
   C       -5.10913        -5.79424        -0.24435
   C       -5.82961        -6.04477        -1.41354
   C       -5.69726        -5.02854        -2.35772
   S       -6.59115        -5.18621        -3.83866
   C       -7.37510        -6.73207        -3.41416
   O       -8.12797        -7.30074        -4.13504
   S       -6.91554        -7.35031        -1.80448
   C       -5.04109        -6.66201         0.87795
   C       -5.12980        -6.35083         2.21989
   N       -5.16958        -5.07434         2.80343
   O       -5.63585        -4.98222         3.92187
   O       -4.73622        -4.13202         2.15517
   C       -5.34623        -7.56007         2.98297
   C       -5.33723        -8.61752         2.14177
   C       -5.03179        -8.14569         0.81393
   C       -4.51995        -8.87383        -0.22683
   C       -3.88202        -8.34820        -1.41917
   C       -3.57798        -9.36207        -2.25125
   C       -4.00197       -10.59712        -1.61834
   N       -3.70069       -11.87385        -2.11350
   O       -3.10917       -11.95300        -3.17618
   O       -3.98647       -12.83991        -1.41740
   C       -4.54395       -10.33755        -0.38225
   C       -5.11615       -11.34666         0.48467
   C       -4.59634       -11.72656         1.65705
   C       -5.17605       -12.76073         2.50204
   C       -6.54412       -12.68138         2.79348
   C       -7.08889       -13.57197         3.68797
   C       -6.29278       -14.53694         4.31572
   C       -7.15884       -15.32041         5.23311
   O       -6.87206       -16.23526         5.96044
   N       -8.42504       -14.77009         5.09880
   C       -8.47707       -13.72131         4.19328
   O       -9.46263       -13.08792         3.91657
   C       -9.58757       -15.27783         5.79701
   C      -10.28511       -16.36352         4.98606
   C       -4.95462       -14.64373         4.03179
   C       -4.38017       -13.77218         3.08688
   C       -3.01329       -14.04002         2.71158
   C       -2.39747       -13.70420         1.55491
   C       -1.10500       -14.20453         1.23556
   C       -0.36982       -13.92939         0.12744
   C        0.70052       -14.87550        -0.31782
   O        1.22147       -15.73593         0.34872
   C        0.91708       -14.56143        -1.74500
   C        1.66300       -15.22689        -2.67486
   C        1.66078       -14.76687        -4.01169
   C        0.86427       -13.63857        -4.36730
   C        0.84467       -13.20729        -5.70865
   C        1.59076       -13.85669        -6.65163
   C        2.38628       -14.96546        -6.29776
   C        2.41986       -15.41323        -5.00670
   F        3.11019       -15.58053        -7.24163
   F        1.57565       -13.44383        -7.92503
   C        0.11138       -12.95997        -3.38247
   C        0.15785       -13.40627        -2.08967
   C       -0.48760       -12.90397        -0.88472
   C       -0.87103       -11.60432        -0.68937
   C       -1.33509       -11.08435         0.53147
   N       -1.71512       -10.58942         1.49622
   C       -0.72775       -10.59948        -1.66922
   N       -0.62393        -9.72928        -2.40983
   H       -0.23785         3.28656        -4.12875
   H        1.07632         1.29216         0.21616
   H       -1.97051         1.59783        -4.40776
   H       -0.68549        -0.45828        -0.04822
   H       -5.10902        -2.94498        -3.74173
   H       -5.48924        -7.56150         4.04685
   H       -5.44576        -9.64696         2.41264
   H       -3.63403        -7.31752        -1.56908
   H       -3.08395        -9.31848        -3.20209
   H       -5.94478       -11.90344         0.06075
   H       -3.67806       -11.27055         2.01244
   H       -7.15507       -11.91535         2.34019
   H      -10.26226       -14.43564         5.96645
   H       -9.24361       -15.67848         6.75323
   H      -10.62225       -15.96252         4.03313
   H      -11.14651       -16.73430         5.53363
   H       -9.60424       -17.19146         4.80220
   H       -4.35548       -15.40549         4.50694
   H       -2.46251       -14.65358         3.41515
   H       -2.92220       -13.14656         0.79378
   H       -0.70292       -14.98169         1.87784
   H        2.24135       -16.09546        -2.39911
   H        0.24081       -12.36007        -5.99316
   H        3.03094       -16.26561        -4.75417
   H       -0.51114       -12.12924        -3.67550
*
