# ORCA input file
# SCF done       -247.164813248913          0.000651928215
! CAM-B3LYP def2-SVP def2/J RIJCOSX Grid4 TightSCF
%maxcore 5000
%tddft
    Mode sTDDFT
    Ethresh 5.0
    maxcore 5000
end

%pal
  nprocs 6
  end
* xyz 0 1
   C       -5.70317         0.43414        -5.49675
   C       -6.28471         0.39165        -6.73289
   F       -6.47211         1.51896        -7.42761
   C       -6.69374        -0.83695        -7.29192
   F       -7.25979        -0.84817        -8.50428
   C       -6.51531        -2.00588        -6.60649
   C       -5.91785        -1.99531        -5.33085
   C       -5.50448        -0.75370        -4.76420
   C       -4.90147        -0.71931        -3.48687
   C       -4.71503        -1.88993        -2.79862
   C       -5.12502        -3.12813        -3.37500
   C       -5.71432        -3.19001        -4.60590
   C       -4.77748        -4.23197        -2.46512
   O       -4.96796        -5.41794        -2.60888
   C       -4.07458        -3.58982        -1.32202
   C       -4.13016        -2.14713        -1.48867
   C       -3.76993        -1.21873        -0.55434
   C       -3.33193        -1.56262         0.74347
   N       -3.01805        -1.80927         1.81907
   C       -3.84848         0.17673        -0.75202
   N       -3.89428         1.31671        -0.86853
   C       -3.37530        -4.32605        -0.43320
   C       -3.38848        -5.76852        -0.43965
   C       -2.32435        -6.54506        -0.82318
   N       -1.09945        -6.01935        -1.26678
   O       -0.20145        -6.79251        -1.53082
   O       -1.02034        -4.80054        -1.35192
   C       -2.68947        -7.94285        -0.77040
   C       -3.98407        -8.02087        -0.38721
   C       -4.49596        -6.69067        -0.15451
   C       -5.71891        -6.30767         0.34371
   C       -6.00563        -5.05648         0.98136
   C       -7.25998        -5.10699         1.49684
   C       -7.84608        -6.38374         1.19070
   N       -9.20111        -6.61921         1.48959
   O       -9.83880        -5.68129         1.93312
   O       -9.68103        -7.72550         1.29009
   C       -6.92856        -7.14952         0.46490
   C       -7.04213        -8.38697        -0.20419
   C       -7.83074        -9.44475         0.16302
   C       -7.89857       -10.63380        -0.58197
   N       -8.68625       -11.70257        -0.23616
   C       -9.60801       -11.77252         0.87641
   C      -10.86826       -10.94736         0.63315
   C       -8.56460       -12.76353        -1.14315
   O       -9.15123       -13.82137        -1.03349
   C       -7.61202       -12.28738        -2.13234
   C       -7.21920       -10.99489        -1.76405
   C       -6.24917       -10.52355        -2.74050
   O       -5.62271        -9.48914        -2.81787
   N       -6.14729       -11.57480        -3.66265
   C       -5.24327       -11.49874        -4.78863
   C       -3.95729       -12.28005        -4.53775
   C       -6.94328       -12.64044        -3.32611
   C       -7.03454       -13.80932        -4.09425
   C       -7.82138       -14.87127        -3.71941
   C       -7.97233       -16.10873        -4.36854
   C       -7.24660       -16.76986        -5.37784
   N       -6.22712       -16.32517        -6.23888
   O       -6.06621       -15.12756        -6.42344
   O       -5.55077       -17.18350        -6.77851
   C       -7.66150       -18.13549        -5.43461
   C       -8.60604       -18.36126        -4.47815
   C       -8.87588       -17.12813        -3.80597
   C       -9.90464       -16.91295        -2.90631
   C      -10.70422       -15.73914        -2.78757
   C      -11.79917       -16.02975        -2.02885
   C      -11.69660       -17.38233        -1.55955
   N      -12.63892       -17.95792        -0.68727
   O      -13.60004       -17.27812        -0.37749
   O      -12.45331       -19.10049        -0.29937
   C      -10.52900       -17.95011        -2.05102
   C       -9.95754       -19.18879        -1.67273
   C       -8.62728       -19.46211        -1.70939
   C       -8.01506       -20.70842        -1.32508
   C       -8.71099       -21.63924        -0.52925
   C       -8.06367       -22.77873        -0.12248
   C       -6.73358       -23.02588        -0.48456
   C       -6.32609       -24.32267         0.11122
   O       -5.27146       -24.89938         0.03833
   N       -7.44261       -24.77667         0.79545
   C       -8.52803       -23.91430         0.71503
   O       -9.60022       -24.10150         1.22685
   C       -7.46311       -26.01046         1.55287
   C       -6.96849       -25.79095         2.97801
   C       -6.03735       -22.13994        -1.27269
   C       -6.67483       -20.97358        -1.70858
   C       -5.95684       -20.07905        -2.61563
   C       -4.65176       -19.84212        -2.55506
   H       -5.39656         1.38240        -5.08374
   H       -6.83271        -2.93726        -7.04851
   H       -4.59125         0.23235        -3.08589
   H       -6.01550        -4.13921        -5.02224
   H       -2.70099        -3.85353         0.27191
   H       -2.01446        -8.74226        -1.00765
   H       -4.52960        -8.92296        -0.19793
   H       -5.30181        -4.25599         1.10265
   H       -7.77261        -4.34396         2.05178
   H       -6.42036        -8.48780        -1.08569
   H       -8.41902        -9.38985         1.06407
   H       -9.10292       -11.44546         1.78880
   H       -9.86981       -12.82951         0.97768
   H      -10.64501        -9.88480         0.58646
   H      -11.56828       -11.11515         1.44633
   H      -11.34123       -11.25175        -0.29745
   H       -5.01138       -10.43837        -4.91835
   H       -5.74622       -11.86738        -5.68562
   H       -3.45041       -11.89863        -3.65451
   H       -3.29626       -12.17124        -5.39219
   H       -4.16527       -13.33751        -4.39559
   H       -6.47370       -13.85270        -5.01473
   H       -8.38394       -14.77110        -2.80012
   H       -7.27142       -18.84047        -6.14482
   H       -9.15138       -19.27216        -4.32441
   H      -10.53935       -14.82681        -3.32536
   H      -12.62401       -15.38303        -1.79646
   H      -10.65359       -19.91070        -1.26630
   H       -7.94901       -18.67601        -2.01035
   H       -9.72319       -21.45143        -0.20842
   H       -6.82033       -26.72533         1.03352
   H       -8.49439       -26.37083         1.55797
   H       -5.94610       -25.42016         2.96788
   H       -6.99442       -26.72964         3.52374
   H       -7.60261       -25.07073         3.48988
   H       -5.02404       -22.35502        -1.57326
   H       -6.54667       -19.60638        -3.38925
   H       -4.02491       -20.26666        -1.78896
   H       -4.16805       -19.19004        -3.26149
*
