# ORCA input file
# SCF done       -203.457621099915          0.000940475181
! CAM-B3LYP def2-SVP def2/J RIJCOSX Grid4 TightSCF
%maxcore 5000
%tddft
    Mode sTDDFT
    Ethresh 5.0
    maxcore 5000
end

%pal
  nprocs 6
  end
* xyz 0 1
   C        2.58944         1.60660         4.17784
   N        1.44186         1.01333         3.76608
   C        1.18444        -0.40473         3.73544
   C        1.94588        -1.09036         2.60438
   C        0.50777         1.96997         3.29788
   O       -0.59410         1.67391         2.87721
   C        1.18692         3.23040         3.46643
   C        2.47467         2.96288         4.01314
   C        3.15669         4.23540         4.19736
   O        4.25288         4.50912         4.62429
   N        2.22000         5.19003         3.75568
   C        2.53632         6.60082         3.72908
   C        2.92931         7.06465         2.32946
   C        1.05499         4.61362         3.31896
   C       -0.05244         5.35413         2.85223
   C       -1.22669         4.78887         2.44972
   C       -2.33134         5.56886         2.06151
   S       -2.25355         7.30091         1.93960
   C       -3.95632         7.43757         1.62169
   C       -4.54448         6.17153         1.60132
   C       -3.63655         5.12547         1.81334
   O       -3.97219         3.82672         1.81200
   O       -5.89987         5.93663         1.44953
   C       -6.58812         5.80117         2.69890
   C       -4.50295         8.73368         1.55295
   S       -3.41944        10.03731         1.93768
   C       -4.74026        11.16852         2.06284
   C       -5.94741        10.57070         1.59412
   C       -5.80812         9.19415         1.33026
   O       -6.82360         8.43374         0.88340
   O       -7.00512        11.35005         1.41580
   C       -8.26810        10.80789         1.06432
   C       -4.52634        12.45663         2.53448
   C       -5.45639        13.52440         2.69445
   N       -6.77599        13.43681         3.12642
   O       -7.50138        14.40829         2.99658
   O       -7.11845        12.40339         3.69724
   C       -4.75156        14.73429         2.59522
   C       -3.39736        14.46386         2.44032
   C       -3.18991        13.08590         2.53010
   C       -1.92951        12.45409         2.57775
   C       -0.84717        12.86255         1.76480
   C        0.21842        12.01838         1.96582
   C       -0.12972        11.10050         2.98334
   N        0.71159        10.06946         3.38790
   O        1.86714        10.08241         2.98312
   O        0.26684         9.17017         4.09658
   C       -1.44750        11.37185         3.43338
   C       -1.96071        10.92146         4.66408
   C       -3.21906        11.12757         5.16896
   C       -3.57823        10.89027         6.50353
   C       -4.85985        11.00815         6.98803
   C       -5.15854        11.41945         8.38302
   O       -4.39775        11.43011         9.32321
   C       -6.57006        11.87500         8.34902
   C       -7.30997        12.48447         9.31985
   C       -8.63750        12.87695         9.02573
   C       -9.17303        12.64080         7.72547
   C      -10.48856        13.05523         7.43926
   C      -11.24261        13.66781         8.40056
   C      -10.71544        13.89557         9.68672
   C       -9.44038        13.51014         9.99382
   F      -11.47713        14.49768        10.61162
   F      -12.49638        14.05670         8.12899
   C       -8.38986        11.99228         6.74233
   C       -7.11656        11.61167         7.06013
   C       -6.10278        10.92780         6.27198
   C       -6.34496        10.10543         5.19980
   C       -5.39403         9.21080         4.68967
   N       -4.71790         8.38474         4.25935
   C       -7.60305         9.88980         4.60473
   N       -8.58114         9.60203         4.07631
   H        3.40593         1.02806         4.56868
   H        0.10757        -0.51888         3.58502
   H        1.46096        -0.84128         4.69976
   H        1.65508        -0.66644         1.64642
   H        1.71900        -2.15267         2.59851
   H        3.01879        -0.96323         2.73010
   H        3.37885         6.73856         4.41089
   H        1.68593         7.17729         4.10095
   H        3.85324         6.58491         2.01580
   H        3.07346         8.14134         2.34037
   H        2.14943         6.82497         1.60882
   H        0.02790         6.43321         2.85496
   H       -1.36308         3.71449         2.45661
   H       -4.89805         3.73306         1.54544
   H       -6.44698         6.69178         3.31597
   H       -6.23290         4.92837         3.25105
   H       -7.64026         5.68239         2.45024
   H       -6.56905         7.48827         0.88513
   H       -8.64046        10.15981         1.86038
   H       -8.21618        10.25599         0.12531
   H       -8.92217        11.67160         0.95969
   H       -5.20693        15.70273         2.68825
   H       -2.61517        15.19715         2.40001
   H       -0.90539        13.64886         1.03665
   H        1.15679        12.01645         1.44488
   H       -1.26528        10.36232         5.27860
   H       -3.97919        11.56699         4.53795
   H       -2.78899        10.75204         7.23358
   H       -6.89256        12.67142        10.29762
   H      -10.90433        12.88835         6.45801
   H       -9.05157        13.69510        10.98296
   H       -8.79049        11.83654         5.75285
*
