# ORCA input file
# SCF done       -143.844643692022          0.000675575328
! CAM-B3LYP def2-SVP def2/J RIJCOSX Grid4 TightSCF
%maxcore 5000
%tddft
    Mode sTDDFT
    Ethresh 5.0
    maxcore 5000
end

%pal
  nprocs 6
  end
* xyz 0 1
   C       13.21856        -4.83962        -4.18563
   S       11.63283        -5.19974        -3.64060
   C       11.43958        -3.61266        -2.93852
   C       12.59058        -2.85434        -3.13918
   C       13.60188        -3.57053        -3.85591
   C       14.84859        -2.99858        -4.17018
   N       15.85556        -2.50657        -4.41117
   C       12.82188        -1.54086        -2.71992
   N       13.08353        -0.46583        -2.40530
   C       10.22631        -3.28450        -2.28801
   C        9.97988        -2.06895        -1.72645
   C        8.77791        -1.71438        -1.06978
   C        8.55310        -0.46318        -0.51452
   O        7.37558        -0.13942         0.11795
   C        6.43944        -1.12846         0.17166
   C        6.66839        -2.41418        -0.39694
   C        5.61593        -3.25422        -0.23658
   S        4.32695        -2.48535         0.61257
   C        5.21854        -1.01781         0.75178
   O        7.83461        -2.72625        -1.02640
   C        9.49989         0.58850        -0.54544
   C        9.30480         1.82959        -0.01565
   C       10.29074         2.82970        -0.08372
   S       11.83415         2.53872        -0.84207
   C       12.38822         4.15763        -0.51671
   C       11.39288         4.88124         0.15934
   C       10.23460         4.13782         0.39693
   S        8.77563         4.68442         1.21012
   C        8.98671         6.35364         1.74391
   O        8.06579         6.85364         2.33184
   C       10.23870         7.15854         1.49419
   O       10.30170         8.29250         1.88796
   S       11.65718         6.55168         0.63123
   C       13.66626         4.55611        -0.92693
   S       14.25789         6.18736        -0.67286
   C       15.80253         5.85134        -1.42809
   C       15.81680         4.52084        -1.83947
   C       14.64374         3.78472        -1.57630
   C       14.74972         2.44367        -2.03368
   C       15.94486         2.17658        -2.61448
   C       16.40006         0.89189        -3.19541
   S       17.01945         3.56675        -2.63503
   C       16.82073         6.79267        -1.57522
   C       16.78736         8.11049        -1.18077
   C       17.83105         9.05483        -1.34264
   C       17.54071        10.29791        -0.87072
   C       16.24780        10.40640        -0.30779
   S       15.41497         8.86412        -0.39989
   C       15.64492        11.51154         0.25077
   C       16.19359        12.81667         0.39638
   C       15.36264        13.70411         0.98663
   C       14.08505        13.16337         1.35434
   S       14.02136        11.45398         0.89629
   C       13.06480        13.79684         1.94920
   H       13.78963        -5.57367        -4.71871
   H        9.47142        -4.05600        -2.25070
   H       10.74636        -1.31718        -1.78119
   H        5.52459        -4.26822        -0.56442
   H        4.79859        -0.16743         1.24649
   H       10.44692         0.39834        -1.02333
   H        8.37460         2.07965         0.47370
   H       13.98164         1.69888        -1.94532
   H       17.26770         0.51126        -2.65749
   H       16.68896         1.01817        -4.23777
   H       15.60104         0.15722        -3.13788
   H       17.72447         6.43854        -2.05516
   H       18.76305         8.78073        -1.80480
   H       18.21579        11.13359        -0.91307
   H       17.18771        13.04737         0.05679
   H       15.59965        14.73469         1.18251
   H       13.14128        14.83705         2.21242
   H       12.14558        13.29076         2.18090
*
