# ORCA input file
# SCF done       -152.406538285435          0.000565099077
! CAM-B3LYP def2-SVP def2/J RIJCOSX Grid4 TightSCF
%maxcore 5000
%tddft
    Mode sTDDFT
    Ethresh 5.0
    maxcore 5000
end

%pal
  nprocs 6
  end
* xyz 0 1
   C        1.67843        24.73628         6.09408
   O        0.59020        25.50302         5.95050
   C       -0.40638        24.69844         5.53587
   C        0.02353        23.41914         5.40901
   C        1.40679        23.42424         5.77612
   C        2.33366        22.33457         5.81843
   C        2.03740        21.05052         5.50221
   C        2.97343        19.99382         5.55766
   C        2.66831        18.69889         5.23857
   C        3.57770        17.63879         5.29560
   C        3.27194        16.33176         4.97767
   C        4.13042        15.21516         5.02442
   C        3.53990        14.03628         4.65585
   C        2.18822        14.16504         4.29782
   S        1.67676        15.82784         4.44026
   C        1.30468        13.17159         3.88187
   C        1.54819        11.79886         3.73672
   C        0.45082        11.09027         3.31609
   C       -0.69593        11.87431         3.11231
   S       -0.34973        13.54725         3.46432
   C       -1.94423        11.41493         2.70324
   C       -3.04934        12.23369         2.51449
   C       -4.33389        11.78715         2.12964
   O       -5.37800        12.67660         1.95887
   C       -5.11421        13.98665         2.19082
   C       -3.82238        14.43488         2.58581
   C       -3.75743        15.77718         2.77020
   S       -5.28301        16.51635         2.46195
   C       -6.01053        15.00051         2.08218
   O       -2.79107        13.56746         2.74668
   C       -4.67351        10.45733         1.90266
   C       -5.95615        10.05938         1.55044
   C       -6.33626         8.75078         1.33488
   C       -7.63149         8.36652         1.00183
   C       -8.10769         7.06630         0.77856
   C       -9.44452         7.00027         0.47509
   C      -10.07905         8.25161         0.44573
   S       -8.93545         9.52016         0.81199
   C      -11.41345         8.53861         0.17887
   C      -12.45030         7.63678        -0.12186
   C      -13.66002         8.23670        -0.33000
   C      -13.63395         9.64444        -0.20422
   S      -12.01488        10.18156         0.18931
   C      -14.69227        10.50850        -0.35948
   C      -14.58265        11.90320        -0.22367
   O      -13.40078        12.47648         0.07640
   C      -13.57248        13.82110         0.14222
   C      -14.89125        14.13025        -0.11969
   C      -15.54491        12.91008        -0.35497
   C      -16.97574        12.70940        -0.67372
   F      -17.61730        11.95348         0.24429
   F      -17.65373        13.86260        -0.75071
   F      -17.16978        12.07619        -1.85085
   C      -12.42860        14.62893         0.45344
   C      -12.43493        15.95771         0.54765
   H        2.58147        25.21226         6.42241
   H       -1.36337        25.15179         5.36821
   H       -0.55890        22.57768         5.09687
   H        3.33927        22.58564         6.13063
   H        1.03368        20.79854         5.18844
   H        3.98146        20.23266         5.87247
   H        1.65886        18.46500         4.92217
   H        4.59199        17.84448         5.61277
   H        5.15788        15.30908         5.32945
   H        4.04721        13.08838         4.63489
   H        2.50651        11.35665         3.94227
   H        0.44437        10.02712         3.15116
   H       -2.04127        10.35703         2.52927
   H       -2.91020        16.35959         3.06496
   H       -7.04174        14.94247         1.80449
   H       -3.91072         9.70456         2.01336
   H       -6.71119        10.82651         1.44529
   H       -5.60108         7.96201         1.43158
   H       -7.46173         6.20836         0.84668
   H       -9.97283         6.08528         0.27621
   H      -12.28694         6.57536        -0.17760
   H      -14.56863         7.71386        -0.56970
   H      -15.66355        10.10689        -0.60120
   H      -15.33818        15.10228        -0.14273
   H      -11.52029        14.06418         0.61357
   H      -13.32885        16.53535         0.39094
   H      -11.54070        16.50477         0.78614
*
