# ORCA input file
# SCF done       -148.293174422249          0.000496857325
! CAM-B3LYP def2-SVP def2/J RIJCOSX Grid4 TightSCF
%maxcore 5000
%tddft
    Mode sTDDFT
    Ethresh 5.0
    maxcore 5000
end

%pal
  nprocs 6
  end
* xyz 0 1
   C        2.07104        14.03286         3.13854
   O        0.93454        14.55305         3.62219
   C        0.00147        13.58563         3.55722
   C        0.52005        12.44569         3.03764
   C        1.89392        12.72458         2.75351
   C        2.89496        11.86249         2.19549
   C        2.69587        10.57724         1.83246
   C        3.71249         9.74956         1.28790
   C        3.51441         8.45456         0.93074
   C        4.49984         7.59784         0.39651
   S        6.12943         8.12920         0.12367
   C        6.63785         6.57790        -0.47733
   C        5.56024         5.67572        -0.47034
   C        4.35513         6.25234         0.02202
   C        3.19158         5.45998         0.08498
   C        3.20973         4.15732        -0.32160
   C        1.99235         3.29120        -0.26858
   C        4.42299         3.58752        -0.81746
   O        4.31832         2.28405        -1.19567
   C        5.45944         1.63412        -1.69621
   C        5.57250         4.33173        -0.88881
   C        7.96341         6.33113        -0.87904
   C        8.95936         7.25765        -0.88989
   C       10.30000         6.99620        -1.26071
   S       11.46895         8.29591        -1.26842
   C       12.76461         7.23423        -1.74860
   C       12.27639         5.93229        -1.90249
   C       10.90351         5.81209        -1.62880
   C       13.02951         4.82055        -2.30747
   N       13.58666         3.87256        -2.64094
   C       14.06358         7.76489        -1.90498
   C       15.19158         7.02619        -2.09871
   C       16.50350         7.52388        -2.24491
   S       17.81522         6.44567        -1.88457
   C       19.02301         7.67692        -2.08328
   C       18.42585         8.87176        -2.52524
   C       17.00326         8.78646        -2.61225
   C       16.28416         9.88852        -3.11551
   C       16.92143        11.03921        -3.48387
   C       16.17859        12.21886        -4.02337
   C       18.34221        11.11806        -3.38936
   O       18.87432        12.30036        -3.80721
   C       20.26927        12.46335        -3.76247
   C       19.07583        10.05084        -2.93814
   C       20.35746         7.33838        -1.76125
   C       21.38181         8.18841        -1.48919
   C       22.69302         7.75363        -1.16719
   O       22.98719         6.42994        -1.13616
   C       24.28506         6.31422        -0.80750
   C       24.85781         7.53021        -0.62349
   C       23.83609         8.49650        -0.85304
   C       23.93775         9.92183        -0.78754
   C       25.05886        10.60722        -0.49496
   C       25.11618        12.04123        -0.44140
   C       26.21910        12.72839        -0.14660
   H        2.93496        14.66720         3.11248
   H       -0.98189        13.83005         3.90755
   H        0.00062        11.52465         2.87441
   H        3.87521        12.30376         2.06982
   H        1.71803        10.13161         1.95644
   H        4.69507        10.18564         1.15847
   H        2.53112         8.02207         1.06176
   H        2.27417         5.88882         0.45843
   H        1.14186         3.84083         0.12529
   H        2.18002         2.42171         0.35945
   H        1.75219         2.92372        -1.26504
   H        5.14294         0.61836        -1.92802
   H        6.26238         1.60143        -0.95261
   H        5.82843         2.11444        -2.60833
   H        6.49027         3.90890        -1.26258
   H        8.18178         5.32108        -1.19524
   H        8.73122         8.27231        -0.59110
   H       10.38264         4.87386        -1.69862
   H       14.13717         8.83690        -1.79484
   H       15.10954         5.94752        -2.07360
   H       15.21777         9.81270        -3.25162
   H       15.11172        12.01849        -4.06873
   H       16.54103        12.46445        -5.02031
   H       16.35397        13.08928        -3.39292
   H       20.46033        13.47335        -4.12183
   H       20.78155        11.74621        -4.41225
   H       20.65217        12.36520        -2.74116
   H       20.15071        10.07983        -2.94119
   H       20.55610         6.27752        -1.67404
   H       21.22903         9.25431        -1.46576
   H       24.68129         5.32024        -0.73683
   H       25.87669         7.71940        -0.35710
   H       23.02967        10.47476        -0.99243
   H       25.97865        10.08017        -0.28453
   H       24.19409        12.56774        -0.65544
   H       27.14948        12.23119         0.07319
   H       26.23014        13.80382        -0.11148
*
