# ORCA input file
# SCF done       -153.505533366060          0.000326757538
! CAM-B3LYP def2-SVP def2/J RIJCOSX Grid4 TightSCF
%maxcore 5000
%tddft
    Mode sTDDFT
    Ethresh 5.0
    maxcore 5000
end

%pal
  nprocs 6
  end
* xyz 0 1
   C       -0.29420        11.36747       -10.88544
   O       -1.32850        10.70741       -11.41589
   C       -2.10862        10.29999       -10.39224
   C       -1.58920        10.68913        -9.20372
   C       -0.38340        11.39967        -9.50913
   C        0.49592        11.98922        -8.54899
   C        1.63903        12.66035        -8.84880
   C        2.52436        13.24570        -7.90968
   C        2.35636        13.22583        -6.55056
   C        3.22629        13.79146        -5.61588
   C        2.97831        13.72012        -4.25729
   C        3.73731        14.21467        -3.17786
   C        3.19294        13.95761        -1.94532
   C        1.98117        13.25144        -2.00455
   S        1.54172        12.91710        -3.65546
   C        1.12642        12.80393        -0.99747
   C        1.19772        12.89987         0.39871
   C        0.13267        12.31588         1.03809
   C       -0.81800        11.73894         0.17257
   S       -0.31682        11.95809        -1.48332
   C       -1.98795        11.09626         0.54902
   C       -2.94833        10.52350        -0.27535
   S       -4.38570         9.78771         0.45712
   C       -5.11346         9.32305        -1.07636
   C       -4.24009         9.72725        -2.11635
   C       -3.07024        10.37818        -1.66239
   O       -2.29575        10.72785        -2.70447
   C       -2.95227        10.31149        -3.81918
   N       -2.36260        10.55172        -5.06304
   O       -2.97364        10.15685        -6.05044
   O       -1.29003        11.13111        -5.10585
   C       -4.14927         9.69186        -3.51786
   C       -6.32697         8.69115        -1.21522
   C       -7.19402         8.29526        -0.20056
   C       -8.44339         7.68158        -0.37843
   C       -9.10119         7.40068         0.79218
   C       -8.38873         7.77920         1.93974
   S       -6.86159         8.50716         1.50057
   C       -8.76285         7.63022         3.27235
   C       -9.96289         7.10212         3.78047
   C      -10.02134         7.08952         5.14393
   C       -8.86917         7.61299         5.78485
   S       -7.70881         8.11562         4.57612
   C       -8.70393         7.62775         7.14869
   C       -7.66826         8.10329         7.98267
   O       -7.69799         7.60471         9.24479
   C       -6.67880         8.13566         9.95681
   C       -5.97589         9.01074         9.16207
   C       -6.60019         9.00421         7.89889
   C       -6.18538         9.91871         6.80735
   F       -7.21942        10.48741         6.16374
   F       -5.44833        10.93914         7.28508
   F       -5.41450         9.33735         5.86556
   C       -6.46989         7.76856        11.32915
   C       -7.23510         6.90830        11.99903
   H        0.43164        11.76470       -11.56709
   H       -2.99273         9.74859       -10.64306
   H       -1.99637        10.50648        -8.23028
   H        0.18955        11.86474        -7.52010
   H        1.91340        12.76321        -9.89053
   H        3.39967        13.74327        -8.30914
   H        1.48298        12.73233        -6.14543
   H        4.12194        14.29815        -5.95030
   H        4.66169        14.74368        -3.33187
   H        3.63489        14.25924        -1.01213
   H        2.01410        13.38564         0.90299
   H        0.00995        12.28794         2.10653
   H       -2.18546        11.03729         1.61133
   H       -4.83519         9.28317        -4.23065
   H       -6.64666         8.48453        -2.22853
   H       -8.83189         7.46350        -1.35770
   H      -10.06761         6.93296         0.84321
   H      -10.75001         6.74887         3.13896
   H      -10.85868         6.72528         5.71220
   H       -9.48223         7.12680         7.71214
   H       -5.12631         9.59878         9.44300
   H       -5.62440         8.25083        11.79855
   H       -8.07594         6.42774        11.52943
   H       -7.04078         6.66353        13.02780
*
