# ORCA input file
# SCF done       -159.948146096886          0.000279049053
! CAM-B3LYP def2-SVP def2/J RIJCOSX Grid4 TightSCF
%maxcore 5000
%tddft
    Mode sTDDFT
    Ethresh 5.0
    maxcore 5000
end

%pal
  nprocs 6
  end
* xyz 0 1
   C       13.96236        -7.90414         4.94648
   S       13.40235        -9.39631         4.35146
   C       12.55052        -8.64841         3.00827
   C       12.79429        -7.25810         3.02045
   C       13.56970        -6.84585         4.15030
   C       13.85527        -5.47990         4.33935
   C       13.43287        -4.53292         3.44006
   O       13.76813        -3.25466         3.75702
   C       13.18821        -2.14697         3.10379
   C       12.74442        -4.95802         2.25367
   O       12.41984        -3.99763         1.34323
   C       11.68845        -4.36091         0.19447
   C       12.45949        -6.29016         2.06377
   C       11.77266        -9.51907         2.23697
   C       10.71866        -9.30185         1.37084
   C       10.01831       -10.32226         0.68884
   C        8.96525        -9.88810        -0.07206
   C        8.77849        -8.49898        -0.03029
   S        9.95767        -7.76250         1.02408
   C        7.87655        -7.68206        -0.70562
   C        6.82199        -8.00788        -1.56844
   C        6.16696        -6.91222        -2.07280
   C        6.68125        -5.67917        -1.63550
   S        8.01670        -5.94571        -0.54169
   C        6.24886        -4.41165        -1.99145
   C        6.80709        -3.21277        -1.58207
   S        8.19913        -3.04029        -0.51867
   C        8.21212        -1.26640        -0.56557
   C        7.14755        -0.83984        -1.40130
   C        6.40755        -1.91873        -1.93650
   O        5.43626        -1.49210        -2.75706
   C        5.54710        -0.13652        -2.76784
   N        4.66469         0.59813        -3.58053
   O        4.82159         1.80736        -3.60058
   O        3.82266        -0.01401        -4.20886
   C        6.56862         0.31710        -1.96444
   C        9.21478        -0.64777         0.14439
   C        9.45700         0.69941         0.41179
   C       10.59916         1.18091         1.06742
   C       10.61672         2.54383         1.24666
   C        9.47433         3.18546         0.75879
   S        8.38329         2.02373         0.04683
   C        9.16079         4.54632         0.79431
   C        9.96877         5.60842         1.22004
   C        9.36414         6.83455         1.11696
   C        8.04606         6.79236         0.62428
   S        7.60352         5.13521         0.27336
   C        7.23196         7.89807         0.44440
   C        5.90054         7.94217         0.04287
   S        5.13782         9.52820        -0.14170
   C        3.64905         8.79591        -0.56093
   C        3.73893         7.39569        -0.55293
   C        4.98457         6.91078        -0.22679
   C        2.38787         6.87623        -0.89469
   O        2.01844         5.72941        -0.95497
   C        1.55944         8.10755        -1.11898
   C        2.34110         9.21692        -0.90629
   C        0.17995         8.00221        -1.48480
   C       -0.65004         9.02437        -1.70873
   H       14.54900        -7.86868         5.84244
   H       14.41382        -5.15929         5.20362
   H       13.50007        -1.28208         3.68990
   H       12.09758        -2.20711         3.09793
   H       13.55264        -2.04346         2.07955
   H       11.50790        -3.43026        -0.34125
   H       12.25865        -5.03912        -0.44645
   H       10.72949        -4.81948         0.45285
   H       11.99753        -6.60407         1.14768
   H       11.98216       -10.56911         2.41247
   H       10.31539       -11.35301         0.77160
   H        8.33870       -10.53215        -0.66259
   H        6.56439        -9.02591        -1.79971
   H        5.33494        -6.96443        -2.75254
   H        5.40068        -4.33905        -2.65909
   H        6.82924         1.34563        -1.83530
   H        9.93862        -1.32286         0.58725
   H       11.38669         0.52076         1.38704
   H       11.41627         3.07767         1.72735
   H       10.97137         5.45891         1.57793
   H        9.83232         7.76377         1.38984
   H        7.69618         8.85323         0.65713
   H        5.23636         5.86830        -0.17178
   H        2.02979        10.24263        -0.98339
   H       -0.17524         6.98334        -1.57630
   H       -0.33007        10.04927        -1.62668
   H       -1.67808         8.86257        -1.98081
*
