# ORCA input file
# SCF done       -179.048973791590          0.000686644196
! CAM-B3LYP def2-SVP def2/J RIJCOSX Grid4 TightSCF
%maxcore 5000
%tddft
    Mode sTDDFT
    Ethresh 5.0
    maxcore 5000
end

%pal
  nprocs 6
  end
* xyz 0 1
   C       18.07789       -11.33471        -4.97231
   C       16.96820       -10.55305        -5.06804
   C       15.80460       -11.30320        -5.43949
   C       16.04713       -12.62236        -5.62626
   S       17.71264       -12.97987        -5.33693
   C       14.63981       -10.40897        -5.51517
   O       13.50734       -10.73747        -5.80882
   C       15.15934        -9.08092        -5.12943
   C       16.58963        -9.15190        -4.98871
   C       17.44723        -8.06851        -4.93850
   N       18.80348        -8.16460        -4.53213
   O       19.10440        -9.08168        -3.78470
   O       19.58890        -7.34108        -4.95725
   N       17.05293        -6.75987        -5.39447
   O       17.43127        -5.80272        -4.75687
   O       16.36572        -6.70614        -6.39612
   C       14.43368        -7.95400        -4.76127
   C       13.08783        -7.64529        -4.88263
   S       12.56852        -6.08617        -4.19127
   C       10.96947        -6.34868        -4.72084
   C       10.83832        -7.59233        -5.39662
   C       12.00620        -8.30379        -5.49363
   C        9.43395        -7.72623        -5.80491
   O        8.91777        -8.64601        -6.40227
   C        8.77821        -6.45330        -5.31580
   C        9.74869        -5.67324        -4.68126
   C        7.43243        -6.12572        -5.47594
   C        6.53053        -6.98688        -6.06695
   C        5.16992        -6.73640        -6.25557
   C        4.28443        -7.69220        -6.79101
   O        2.94914        -7.42804        -6.97140
   C        2.52958        -6.18353        -6.61240
   C        3.41967        -5.22011        -6.05680
   C        2.80427        -4.04737        -5.76025
   S        1.12862        -4.10396        -6.15697
   C        1.25788        -5.72325        -6.72745
   O        4.73789        -5.48624        -5.86300
   C        4.68977        -8.98528        -7.14087
   C        3.86962        -9.95635        -7.67353
   C        4.29431       -11.25448        -7.94649
   S        3.35673       -12.25358        -9.03322
   C        4.54606       -13.51860        -9.06432
   C        5.62482       -13.19580        -8.20898
   C        5.46120       -11.94867        -7.54135
   C        6.35887       -11.61919        -6.51777
   C        7.45247       -12.41193        -6.25749
   S        8.43081       -11.95307        -4.84901
   C        8.33217       -13.49572        -3.86279
   C        6.90939       -13.79251        -3.43469
   C        7.72685       -13.53439        -7.07578
   S        9.21076       -14.49691        -6.96706
   C       10.52804       -13.21019        -7.05373
   C       11.53251       -13.35664        -5.93169
   C        6.78624       -13.94773        -7.99206
   C        4.39608       -14.68003        -9.83041
   C        3.30839       -14.96464       -10.60809
   C        3.15109       -16.13805       -11.36213
   S        4.38695       -17.38200       -11.38728
   C        3.44614       -18.34624       -12.44273
   C        2.25865       -17.77671       -12.77247
   C        2.06308       -16.50917       -12.16753
   N        0.98380       -15.70904       -12.37850
   C       -0.25555       -16.17976       -12.95071
   C       -1.07546       -17.02480       -11.97494
   H       19.07352       -11.07338        -4.67580
   H       15.37071       -13.40140        -5.91561
   H       15.00171        -7.18433        -4.24912
   H       12.11542        -9.26355        -5.96481
   H        9.57576        -4.71119        -4.23501
   H        7.09392        -5.16661        -5.10544
   H        6.92329        -7.92932        -6.40372
   H        3.23603        -3.16498        -5.33710
   H        0.40220        -6.23889        -7.10983
   H        5.72920        -9.22162        -7.01742
   H        2.85733        -9.69345        -7.94945
   H        6.17635       -10.78280        -5.86417
   H        8.97196       -13.29997        -3.00301
   H        8.75082       -14.31188        -4.44971
   H        6.89395       -14.67599        -2.79961
   H        6.27891       -13.98003        -4.30245
   H        6.49376       -12.95508        -2.87822
   H       10.03662       -12.24077        -7.02685
   H       11.00120       -13.34975        -8.02590
   H       11.05134       -13.23370        -4.96480
   H       12.29318       -12.58592        -6.03068
   H       12.00649       -14.33558        -5.96496
   H        6.97012       -14.84920        -8.55470
   H        5.20245       -15.39889        -9.78806
   H        2.50747       -14.23562       -10.64349
   H        3.82620       -19.29533       -12.76535
   H        1.54904       -18.24963       -13.42546
   H        0.89874       -14.91792       -11.75909
   H       -0.02863       -16.75800       -13.84874
   H       -0.82968       -15.30082       -13.25351
   H       -0.50740       -17.89701       -11.65963
   H       -1.99284       -17.35876       -12.45101
   H       -1.33382       -16.44410       -11.09216
*
