# ORCA input file
# SCF done       -162.106487984852          0.000595290183
! CAM-B3LYP def2-SVP def2/J RIJCOSX Grid4 TightSCF
%maxcore 5000
%tddft
    Mode sTDDFT
    Ethresh 5.0
    maxcore 5000
end

%pal
  nprocs 6
  end
* xyz 0 1
   C       15.82052         3.71658        -5.27592
   S       17.33272         3.85448        -4.50038
   C       16.55470         4.57079        -3.13158
   N       17.30873         4.91070        -2.00823
   O       16.71126         5.40798        -1.06328
   O       18.50215         4.67005        -2.02331
   C       15.19751         4.68805        -3.28587
   C       14.75585         4.19063        -4.53224
   C       13.35927         4.17051        -4.88672
   C       12.84081         3.54472        -5.95787
   C       11.44979         3.36489        -6.23852
   N       11.03731         2.53400        -7.24357
   C       11.81079         1.93202        -8.29641
   C       12.22302         2.95664        -9.35142
   N        9.73114         2.33611        -7.21746
   C        9.24992         3.04139        -6.20214
   C       10.28601         3.73271        -5.54818
   C       10.12044         4.70961        -4.43373
   C       10.36762         6.14206        -4.91270
   C        7.83773         2.87960        -5.76038
   C        7.73936         1.65741        -4.80556
   C        8.75143         1.78745        -3.72099
   C        9.99765         1.31575        -3.85750
   C       11.07911         1.61236        -2.97095
   S       12.71590         1.10829        -3.34368
   C       13.42526         1.93137        -1.98411
   C       12.42065         2.56558        -1.26054
   C       11.12490         2.37898        -1.82995
   O       10.19036         3.03547        -1.10489
   C       10.87755         3.63051        -0.08828
   N       10.13899         4.40591         0.83290
   O       10.77097         4.92728         1.73377
   O        8.94157         4.50279         0.66136
   C       12.22603         3.38736        -0.12447
   C       14.81486         1.90472        -1.72973
   O       15.28510         2.51208        -0.59213
   C       16.61569         2.33091        -0.60555
   C       17.78121         2.59598         0.14206
   C       17.88273         3.27398         1.46443
   O       18.63220         2.91311         2.34763
   N       17.00080         4.28508         1.60751
   C       18.80305         2.04118        -0.63186
   O       18.33621         1.45628        -1.77401
   C       17.00255         1.62247        -1.74982
   C       15.84398         1.34100        -2.47812
   C       20.20818         2.05005        -0.41012
   O       20.66610         2.61103         0.74177
   C       21.99170         2.47455         0.70979
   C       23.15304         2.74425         1.47231
   C       23.23404         3.37354         2.81123
   O       24.28397         3.64248         3.35609
   N       22.02339         3.61325         3.35820
   C       24.17399         2.25927         0.68740
   O       23.74450         1.71566        -0.47389
   C       22.40224         1.84293        -0.46470
   C       21.24028         1.55929        -1.19940
   H       15.78529         3.29392        -6.26049
   H       14.55734         5.10866        -2.53150
   H       12.71734         4.66624        -4.17871
   H       13.51935         3.05341        -6.64118
   H       11.16482         1.17545        -8.74659
   H       12.68949         1.43519        -7.87346
   H       11.33926         3.42101        -9.78148
   H       12.78044         2.46695       -10.14511
   H       12.84383         3.73651        -8.91612
   H       10.79686         4.46730        -3.61093
   H        9.10525         4.63663        -4.04303
   H       11.36959         6.24881        -5.32260
   H       10.25016         6.84196        -4.08863
   H        9.65333         6.40246        -5.69050
   H        7.20108         2.69722        -6.62548
   H        7.49200         3.77700        -5.24756
   H        7.93229         0.75808        -5.39184
   H        6.72998         1.61096        -4.39660
   H        8.49158         2.38807        -2.86154
   H       10.25589         0.70866        -4.71474
   H       12.95698         3.74797         0.56922
   H       16.56664         4.71643         0.80472
   H       17.04537         4.82138         2.45928
   H       15.73121         0.81151        -3.40047
   H       21.15602         3.34807         2.91851
   H       21.98808         4.01742         4.27914
   H       25.22964         2.25278         0.87333
   H       21.13331         1.08246        -2.15039
*
