# ORCA input file
# SCF done       -166.571623918105          0.007979194706
! CAM-B3LYP def2-SVP def2/J RIJCOSX Grid4 TightSCF
%maxcore 5000
%tddft
    Mode sTDDFT
    Ethresh 5.0
    maxcore 5000
end

%pal
  nprocs 6
  end
* xyz 0 1
   C        9.31327        -1.93307         4.71586
   C        8.65098        -2.83768         5.49734
   F        9.36170        -3.72829         6.22171
   C        7.25360        -2.88060         5.57979
   C        6.52382        -1.97191         4.86284
   C        7.15447        -1.01839         4.03862
   C        8.57566        -1.00983         3.94941
   C        9.23062        -0.07975         3.10986
   C        8.49006         0.82171         2.39655
   C        7.07252         0.83678         2.52235
   C        6.41214        -0.05694         3.31284
   C        6.53255         1.94872         1.70463
   O        5.37173         2.29108         1.60645
   C        7.69654         2.52137         1.00562
   C        8.88795         1.91971         1.51536
   C       10.17634         2.41279         1.41656
   C       11.31036         1.72040         1.86441
   N       12.25963         1.14461         2.17328
   C       10.46802         3.69942         0.93085
   N       10.71969         4.77182         0.60151
   C        7.48804         3.43884        -0.01233
   C        8.26505         3.72650        -1.12237
   S        9.57927         2.71171        -1.67497
   C        9.85843         3.66496        -3.10059
   C        8.95628         4.76628        -3.13986
   C        8.05603         4.78691        -2.04363
   C        7.11099         5.81601        -1.93504
   C        7.08034         6.79124        -2.89839
   F        6.17691         7.78195        -2.81267
   C        7.97995         6.77724        -3.97783
   F        7.92834         7.76083        -4.88959
   C        8.91164         5.77733        -4.10482
   C       10.83571         3.34305        -4.02816
   C       11.72872         2.29360        -3.88776
   C       12.72755         2.00175        -4.79476
   C       13.68286         1.00714        -4.61275
   C       14.77310         0.71678        -5.44755
   C       15.59521        -0.27398        -4.97402
   C       15.17764        -0.81590        -3.75175
   S       13.69865        -0.04499        -3.21708
   C       15.79237        -1.80245        -2.98723
   C       17.04853        -2.39951        -3.19292
   C       17.38381        -3.30561        -2.22810
   C       16.41083        -3.47559        -1.21474
   S       15.03971        -2.43971        -1.54923
   C       16.54548        -4.39548        -0.19501
   C       15.72691        -4.78505         0.87009
   S       16.14797        -6.33289         1.58794
   C       14.77232        -6.30599         2.63972
   C       14.05069        -5.12819         2.46363
   C       14.60616        -4.24507         1.51853
   S       14.13899        -2.57931         1.24973
   C       12.79419        -2.33801         2.45635
   C       11.84326        -3.51217         2.43271
   S       12.55994        -4.89827         3.36886
   C       14.44306        -7.32784         3.57377
   C       15.13984        -8.44081         3.87584
   C       16.42111        -8.83833         3.22372
   C       14.64593        -9.36504         4.95765
   N       14.70570       -10.73891         4.52532
   C       14.98591       -11.76489         5.39684
   C       14.73465       -13.04946         5.17213
   H       10.39282        -1.90876         4.70140
   H        6.78647        -3.61905         6.21184
   H        5.44541        -1.97401         4.92095
   H       10.30711        -0.10006         3.05579
   H        5.33604        -0.02763         3.39690
   H        6.51504         3.92028         0.02108
   H        6.41609         5.86393        -1.11283
   H        9.59577         5.79334        -4.93723
   H       10.91354         3.96876        -4.90648
   H       11.65955         1.68113        -2.99666
   H       12.80789         2.59773        -5.69438
   H       14.93701         1.24907        -6.36716
   H       16.47955        -0.61703        -5.48021
   H       17.67936        -2.13865        -4.02329
   H       18.30953        -3.85342        -2.21421
   H       17.44304        -4.99975        -0.27891
   H       12.32277        -1.40801         2.13555
   H       13.22785        -2.19882         3.44716
   H       10.90165        -3.28806         2.93311
   H       11.63995        -3.84105         1.41340
   H       13.52356        -7.13529         4.11469
   H       16.29518        -8.93961         2.14664
   H       16.76240        -9.78849         3.62367
   H       17.18761        -8.08248         3.39014
   H       13.63524        -9.06856         5.27619
   H       15.30994        -9.26444         5.82511
   H       14.07897       -10.97266         3.76881
   H       15.50439       -11.44959         6.29454
   H       14.22389       -13.38219         4.28371
   H       15.04379       -13.80487         5.86882
*
