# ORCA input file
# SCF done       -184.060791823147          0.000331295794
! CAM-B3LYP def2-SVP def2/J RIJCOSX Grid4 TightSCF
%maxcore 5000
%tddft
    Mode sTDDFT
    Ethresh 5.0
    maxcore 5000
end

%pal
  nprocs 6
  end
* xyz 0 1
   C      -16.41523       -11.69737        -1.63873
   C      -15.04593       -11.57605        -1.72912
   C      -14.20167       -12.56918        -2.26555
   N      -13.45446       -13.33212        -2.68875
   C      -14.27100       -10.47548        -1.31401
   N      -13.54290        -9.63820        -1.00958
   C      -17.18833       -12.85955        -2.07211
   C      -18.56081       -12.61304        -1.81953
   C      -19.54378       -13.52501        -2.11329
   C      -19.15593       -14.74247        -2.68463
   C      -17.78408       -14.97968        -2.93417
   C      -16.78898       -14.05543        -2.63691
   S      -17.52418       -16.54521        -3.64158
   C      -19.23915       -16.85574        -3.59263
   C      -19.97040       -15.84061        -3.07405
  Br      -19.90211       -18.49065        -4.22958
   C      -18.71153       -11.27356        -1.21352
   O      -19.75086       -10.74384        -0.87416
   C      -17.34185       -10.73125        -1.11002
   C      -17.01902        -9.50042        -0.57741
   C      -17.91152        -8.56972        -0.05729
   C      -17.46591        -7.37242         0.47992
   C      -18.22281        -6.33193         1.05674
   C      -17.46937        -5.28314         1.51602
   C      -16.08892        -5.45582         1.31793
   S      -15.76377        -6.97525         0.52998
   C      -15.01188        -4.63902         1.65485
   C      -14.98067        -3.39244         2.30278
   C      -13.70916        -2.91846         2.47021
   C      -12.69119        -3.76364         1.96379
   S      -13.40626        -5.18550         1.25422
   C      -11.34451        -3.46381         2.06292
   C      -10.20360        -4.15572         1.64443
   C       -8.92012        -3.58707         1.93481
   C       -7.69720        -4.23290         1.54858
   N       -6.52243        -3.67047         1.85535
   C       -6.49161        -2.52932         2.50263
   C       -7.70844        -1.88420         2.87619
   N       -8.87473        -2.42430         2.58779
   C       -7.68078        -0.64799         3.56704
   N       -7.63401         0.35131         4.12539
   C       -5.24036        -1.94725         2.82568
   N       -4.24919        -1.44584         3.10414
   C       -7.66315        -5.46334         0.84255
   C       -8.92808        -6.03027         0.54913
   C      -10.15972        -5.39175         0.94531
   N      -11.21275        -6.10564         0.56773
   S      -10.73811        -7.43812        -0.19898
   N       -9.15787        -7.17487        -0.09422
   C       -6.43339        -6.05466         0.47434
   S       -4.91190        -5.32523         0.89732
   C       -4.05102        -6.62062         0.10649
   C       -4.92124        -7.55287        -0.45254
   C       -6.24849        -7.23788        -0.24304
   C       -2.67780        -6.65743         0.07532
   C       -1.46004        -6.67311         0.06484
   C       -0.07595        -6.72733         0.02767
   C        0.59746        -7.72346        -0.72008
   C        2.03955        -7.77719        -0.75803
   N        2.65333        -8.73735        -1.48608
   C        1.91895        -9.59422        -2.14074
   C        0.48072        -9.53611        -2.09870
   N       -0.13649        -8.61655        -1.39922
   C       -0.28506       -10.48265        -2.82263
   N       -0.87462       -11.26232        -3.42032
   C        2.54969       -10.60510        -2.91251
   N        3.01864       -11.43472        -3.54726
   C        2.82312        -6.86111        -0.06287
   C        2.17288        -5.87860         0.67490
   C        0.72666        -5.80315         0.72416
   N        0.30525        -4.79221         1.48489
   S        1.58000        -4.02149         2.07170
   N        2.73522        -4.90842         1.40937
   H      -20.58040       -13.30813        -1.90824
   H      -15.75790       -14.28584        -2.84608
   H      -21.03972       -15.86400        -2.96930
   H      -15.97085        -9.22674        -0.55151
   H      -18.97045        -8.78234        -0.06242
   H      -19.29507        -6.38462         1.12035
   H      -17.87514        -4.40540         1.98660
   H      -15.86826        -2.88048         2.62904
   H      -13.47114        -1.98380         2.94720
   H      -11.12087        -2.52780         2.56289
   H       -4.57354        -8.42055        -0.98421
   H       -7.08066        -7.82406        -0.58677
   H        3.89718        -6.92144        -0.10441
*
