# ORCA input file
# SCF done       -194.872751275752          0.000622568708
! CAM-B3LYP def2-SVP def2/J RIJCOSX Grid4 TightSCF
%maxcore 5000
%tddft
    Mode sTDDFT
    Ethresh 5.0
    maxcore 5000
end

%pal
  nprocs 6
  end
* xyz 0 1
   C       -2.55168        -2.05005        -3.03551
   C       -1.19684        -1.93049        -2.83336
   C       -0.26216        -2.94168        -3.13947
   N        0.54853        -3.72127        -3.36905
   C       -0.54193        -0.81107        -2.28256
   N        0.05549         0.06438        -1.83451
   C       -3.22545        -3.23312        -3.56022
   C       -4.62466        -3.00571        -3.54047
   C       -5.53580        -3.93779        -3.97203
   C       -5.04324        -5.15660        -4.45108
   C       -3.64484        -5.37580        -4.46985
   C       -2.72378        -4.43223        -4.03034
   S       -3.25292        -6.94461        -5.10372
   C       -4.94847        -7.28104        -5.33171
   C       -5.76817        -6.27108        -4.95287
  Br       -5.47611        -8.93112        -6.04854
   C       -4.88800        -1.65749        -3.00841
   O       -5.97897        -1.14300        -2.84541
   C       -3.57307        -1.06752        -2.73197
   C       -3.31403         0.20902        -2.29523
   C       -4.15846         1.25563        -1.91479
   S       -5.90263         1.17202        -1.98123
   C       -6.01091         2.79375        -1.40969
   C       -7.09827         3.62447        -1.11199
   C       -6.69323         4.83753        -0.62157
   C       -7.62240         5.95382        -0.30767
   O       -8.75831         5.91768        -0.70552
   O       -7.15443         6.98434         0.38145
   S       -4.95674         4.97258        -0.53238
   C       -4.76220         3.38479        -1.19037
   C       -3.66998         2.52802        -1.47083
   C       -2.28331         2.77746        -1.33849
   C       -1.57047         3.94539        -1.25150
   C       -0.15216         3.98246        -1.13107
   C        0.37567         5.23357        -1.04805
   C       -0.59881         6.25621        -1.08804
   S       -2.19152         5.57841        -1.32176
   C       -0.45861         7.61340        -0.87292
   C        0.69939         8.37672        -0.61095
   C        0.43443         9.66884        -0.26966
   C       -0.94852         9.98391        -0.20853
   S       -1.89095         8.61137        -0.73352
   C       -1.48393        11.19094         0.18336
   C       -2.81884        11.53378         0.44639
   S       -3.19546        13.23359         0.18704
   C       -4.87736        12.95426         0.46710
   C       -6.02934        13.74526         0.44915
   C       -7.14091        12.99532         0.74872
   C       -8.51728        13.47720         0.80386
   O       -8.85533        14.61263         0.58156
   O       -9.37770        12.50348         1.13368
   S       -6.78461        11.32242         1.06739
   C       -5.11579        11.61848         0.77397
   C       -3.95927        10.78780         0.83584
   C       -4.12378         9.46827         1.31255
   C       -3.26381         8.52813         1.81914
   C       -1.88737         8.58522         2.25393
   C       -1.23740         9.68517         2.75226
   C        0.12680         9.69321         3.09995
   N        1.24764         9.75104         3.34154
   C       -1.89817        10.89153         3.05477
   N       -2.42003        11.86226         3.37529
   C       -1.36348         7.22204         2.23356
   C       -2.45051         6.33322         2.04563
   C       -3.67848         7.11490         1.84182
   O       -4.79518         6.66118         1.64522
   C       -2.29105         4.97042         1.98303
   C       -0.99031         4.46442         2.06644
   C        0.09091         5.36134         2.23288
   C       -0.07524         6.73859         2.33628
   S        1.61228         4.52514         2.25464
   C        0.78882         3.00151         2.04359
   C       -0.55838         3.11394         1.96446
  Br        1.78206         1.41567         1.91908
   H       -6.59451        -3.73338        -3.94261
   H       -1.66920        -4.64783        -4.06791
   H       -6.83976        -6.30912        -5.02457
   H       -2.26374         0.44911        -2.24061
   H       -8.13167         3.36276        -1.24225
   H       -6.27249         6.84619         0.79481
   H       -1.64059         1.90661        -1.32800
   H        0.42273         3.07297        -1.11012
   H        1.42308         5.44866        -0.93657
   H        1.68560         7.95312        -0.66654
   H        1.18319        10.39451        -0.00655
   H       -0.78213        12.01596         0.23600
   H       -6.06967        14.79621         0.23271
   H      -10.28474        12.84466         1.15637
   H       -5.15069         9.11834         1.23443
   H       -3.13790         4.31637         1.84847
   H        0.77800         7.38427         2.46287
   H       -1.22207         2.27932         1.83181
*
