# ORCA input file
# SCF done       -200.307565378123          0.000855236660
! CAM-B3LYP def2-SVP def2/J RIJCOSX Grid4 TightSCF
%maxcore 5000
%tddft
    Mode sTDDFT
    Ethresh 5.0
    maxcore 5000
end

%pal
  nprocs 6
  end
* xyz 0 1
   C       -0.72813        -1.12412        -0.60580
   C       -1.06310        -2.20367        -1.37919
   C       -0.22522        -3.32033        -1.58042
   N        0.41103        -4.25705        -1.76869
   C       -2.26126        -2.32625        -2.11513
   N       -3.19763        -2.48753        -2.75970
   C        0.54203        -0.92461         0.07666
   C        0.56538         0.38493         0.61446
   C        1.63650         0.87640         1.32061
   C        2.73816         0.03472         1.50419
   C        2.70432        -1.27437         0.96618
   C        1.62119        -1.77139         0.25276
   S        4.16577        -2.14689         1.31613
   C        4.79472        -0.75997         2.16532
   C        3.95525         0.30235         2.18861
  Br        6.49977        -0.84571         2.94178
   C       -0.70156         1.07758         0.30090
   O       -0.98876         2.20996         0.61999
   C       -1.53820         0.06679        -0.40033
   C       -2.88306         0.13965        -0.58793
   C       -3.71985         1.30003        -0.45417
   C       -3.28923         2.57934        -0.83984
   C       -4.12990         3.64849        -0.66044
   C       -5.40488         3.47332        -0.09131
   C       -5.85623         2.20458         0.25462
   C       -5.02027         1.12928         0.05015
   C       -6.04221         4.76379         0.01357
   C       -5.16857         5.74014        -0.50183
   C       -3.88784         5.10276        -0.98748
   C       -2.66348         5.65307        -0.23233
   C       -2.73963         5.41818         1.27111
   C       -3.69651         5.30998        -2.50207
   C       -4.86900         4.79092        -3.32583
   C       -5.52910         7.06331        -0.50369
   C       -6.77140         7.45358         0.03235
   C       -7.63336         6.46064         0.53194
   C       -7.28253         5.12918         0.52269
   C       -7.10304         8.84870         0.06323
   C       -8.15451         9.40171         0.72612
   C       -8.43424        10.77749         0.77335
   C       -9.46331        11.30681         1.51441
   C       -9.82143        12.66687         1.66614
   C      -10.87395        12.87926         2.50811
   C      -11.40731        11.69795         3.06448
   S      -10.54025        10.30275         2.47662
   C      -12.44255        11.55287         3.97443
   C      -13.24051        12.54777         4.57203
   C      -14.14462        12.05129         5.46499
   C      -14.11926        10.64183         5.60854
   S      -12.90432         9.96735         4.55033
   C      -14.87308         9.94645         6.53152
   C      -14.92418         8.57369         6.79323
   S      -15.59615         8.02218         8.30717
   C      -15.17572         6.36906         7.96971
   C      -14.66581         6.24752         6.67546
   C      -14.53683         7.47222         6.00997
   O      -14.12390         7.70575         4.73783
   C      -13.91855         6.65715         3.84988
   S      -12.92312         5.30181         4.58561
   S      -14.40600         4.70374         5.85483
   C      -15.38056         5.39055         8.97708
   C      -14.60310         4.21164         9.10361
   C      -14.93087         3.19814        10.08110
   N      -14.23158         2.04175        10.09936
   C      -13.21776         1.90311         9.28680
   C      -12.79844         2.97736         8.43343
   N      -13.50180         4.08498         8.35763
   C      -11.62487         2.86314         7.65302
   N      -10.68161         2.74408         7.01231
   C      -12.50100         0.67931         9.26486
   N      -11.89247        -0.28977         9.21303
   C      -15.94629         3.37981        11.01213
   C      -16.63792         4.58573        10.98254
   C      -16.35438         5.58958         9.97921
   N      -17.12554         6.66563        10.11618
   S      -18.10379         6.44558        11.37634
   N      -17.61235         4.98245        11.80975
   H        1.62411         1.87885         1.71897
   H        1.63845        -2.77784        -0.13087
   H        4.18244         1.23650         2.66891
   H       -3.41094        -0.78205        -0.80605
   H       -2.32126         2.70565        -1.29607
   H       -6.84137         2.06348         0.67228
   H       -5.34810         0.13497         0.31704
   H       -2.58408         6.72370        -0.43444
   H       -1.76604         5.16877        -0.62059
   H       -3.65775         5.83140         1.68404
   H       -1.89522         5.89443         1.76352
   H       -2.70402         4.35411         1.48968
   H       -2.78269         4.79791        -2.80991
   H       -3.56227         6.37673        -2.69384
   H       -5.00815         3.72371        -3.16778
   H       -4.68547         4.95974        -4.38440
   H       -5.78969         5.30099        -3.05072
   H       -4.86291         7.81875        -0.89594
   H       -8.59711         6.74253         0.92543
   H       -7.95906         4.38367         0.91223
   H       -6.42518         9.51034        -0.46284
   H       -8.82553         8.76762         1.28987
   H       -7.80600        11.46145         0.21828
   H       -9.28622        13.44704         1.15400
   H      -11.27447        13.84872         2.74465
   H      -13.13027        13.59154         4.33856
   H      -14.83207        12.65531         6.03062
   H      -15.46091        10.55779         7.20547
   H      -13.35435         7.07240         3.01462
   H      -14.86288         6.22194         3.50639
   H      -16.17223         2.61235        11.73187
*
