# ORCA input file
# SCF done       -200.259576168552          0.000547399180
! CAM-B3LYP def2-SVP def2/J RIJCOSX Grid4 TightSCF
%maxcore 5000
%tddft
    Mode sTDDFT
    Ethresh 5.0
    maxcore 5000
end

%pal
  nprocs 6
  end
* xyz 0 1
   C      -15.89916        -0.09894         3.22958
   C      -16.17749         0.23845         4.53078
   C      -15.30461         0.00432         5.60708
   N      -14.62724        -0.14538         6.52384
   C      -17.39533         0.80693         4.95921
   N      -18.37002         1.23942         5.38606
   C      -14.71615        -0.79506         2.75294
   C      -14.92721        -1.17084         1.40251
   C      -13.97440        -1.83970         0.67329
   C      -12.74650        -2.11334         1.29088
   C      -12.53483        -1.68749         2.62385
   C      -13.51063        -1.04519         3.37476
   S      -10.92923        -2.04154         3.16734
   C      -10.57077        -2.77251         1.63443
   C      -11.59474        -2.74672         0.74795
  Br       -8.85616        -3.46294         1.35151
   C      -16.22902        -0.63304         0.94311
   O      -16.68032        -0.70457        -0.18214
   C      -16.76360         0.12335         2.09220
   C      -17.67198         1.14664         2.04987
   C      -18.54564         1.58813         1.03969
   O      -18.69798         2.94259         1.03854
   C      -19.53588         3.29005         0.04763
   C      -20.02279         2.12759        -0.55254
   C      -19.39001         1.04290         0.05943
   C      -19.63609        -0.39179        -0.21235
   C      -19.64228         4.66438        -0.24743
   C      -18.77185         5.57242         0.30980
   C      -18.64397         6.95813         0.02732
   C      -17.56307         7.55322         0.60556
   C      -16.78353         6.67276         1.39116
   S      -17.51044         5.08118         1.41992
   C      -15.56423         6.86412         2.00574
   C      -14.71926         8.00093         2.00931
   C      -13.50800         7.78369         2.58255
   C      -13.31416         6.46138         3.08401
   S      -14.79319         5.53326         2.84310
   C      -12.14358         5.94671         3.55028
   C      -11.89860         4.61216         4.02828
   C      -10.61830         4.05705         3.84415
   C      -10.36855         2.76867         4.24627
   C      -11.35317         2.04326         4.94621
   C      -12.61128         2.59089         5.16275
   C      -12.88342         3.85280         4.67765
   C      -10.79040         0.77888         5.35884
   C       -9.46865         0.70221         4.88350
   C       -9.12008         1.93296         4.07409
   C       -8.96193         1.46318         2.60699
   C       -8.77550         2.56574         1.57369
   C       -7.85740         2.63567         4.58975
   C       -7.95595         2.98330         6.07085
   C       -8.70407        -0.40976         5.12724
   C       -9.25449        -1.49249         5.83740
   C      -10.56293        -1.38277         6.33738
   C      -11.32756        -0.25775         6.11536
   C       -8.46531        -2.68155         5.98727
   C       -8.92832        -3.91737         6.30184
   C       -8.06602        -5.02928         6.42481
   C       -8.40650        -6.33329         6.64068
   C       -9.67809        -7.01702         6.59774
   C      -10.75366        -6.70579         5.80437
   C      -11.95002        -7.45142         5.77544
   N      -12.95174        -8.01021         5.72514
   C      -10.76125        -5.69094         4.82802
   N      -10.82688        -4.93163         3.96899
   C       -9.53665        -8.24613         7.37371
   C       -8.16589        -8.43025         7.68508
   C       -7.39265        -7.27841         7.17420
   O       -6.19521        -7.11063         7.22363
   C       -7.70807        -9.52434         8.37729
   C       -8.64733       -10.47527         8.79137
   C      -10.01477       -10.27438         8.48800
   C      -10.47800        -9.17200         7.77996
   S      -11.00283       -11.56349         9.10509
   C       -9.58439       -12.34682         9.74942
   C       -8.42998       -11.67852         9.51744
  Br       -9.76287       -13.97122        10.66986
   H      -14.15893        -2.12640        -0.35033
   H      -13.30317        -0.74235         4.38665
   H      -11.54164        -3.15305        -0.24553
   H      -17.62368         1.86001         2.86797
   H      -20.73711         2.08242        -1.34981
   H      -18.73002        -0.85361        -0.60301
   H      -20.44210        -0.50864        -0.93111
   H      -19.89559        -0.91007         0.70963
   H      -20.36319         4.98613        -0.98112
   H      -19.34128         7.46140        -0.61926
   H      -17.29951         8.58771         0.47260
   H      -15.02404         8.93110         1.56357
   H      -12.72808         8.52145         2.65467
   H      -11.27870         6.59714         3.49295
   H       -9.85463         4.65202         3.36498
   H      -13.36054         2.04206         5.71221
   H      -13.85436         4.28902         4.85451
   H       -9.85250         0.88467         2.34489
   H       -8.10606         0.78607         2.56517
   H       -9.65171         3.20699         1.52743
   H       -8.63357         2.11726         0.59274
   H       -7.90183         3.17321         1.79434
   H       -7.69844         3.55148         4.01913
   H       -6.99737         1.98366         4.42401
   H       -8.80440         3.63913         6.25423
   H       -7.05129         3.48995         6.39887
   H       -8.08396         2.08467         6.67012
   H       -7.69172        -0.48165         4.75652
   H      -10.97650        -2.19046         6.92077
   H      -12.32529        -0.18524         6.52249
   H       -7.41136        -2.58087         5.75561
   H       -9.98265        -4.06790         6.48016
   H       -6.99987        -4.82677         6.44219
   H       -6.65825        -9.64434         8.59417
   H      -11.53004        -9.05804         7.57697
   H       -7.46401       -12.01765         9.84434
*
