# ORCA input file
# SCF done       -182.529920929137          0.000554162189
! CAM-B3LYP def2-SVP def2/J RIJCOSX Grid4 TightSCF
%maxcore 5000
%tddft
    Mode sTDDFT
    Ethresh 5.0
    maxcore 5000
end

%pal
  nprocs 6
  end
* xyz 0 1
   C       -5.54469        -1.21017        -8.40387
   C       -4.94723        -0.60221        -7.37057
   C       -5.28660         0.65679        -6.76953
   C       -4.49098         1.01798        -5.73966
   C       -3.45804         0.08458        -5.43915
   S       -3.55147        -1.28923        -6.52548
   C       -2.49765         0.17995        -4.46382
   C       -2.31474         1.22116        -3.51661
   C       -1.27545         1.02621        -2.66797
   C       -0.56529        -0.18734        -2.88562
   S       -1.28109        -1.06638        -4.23550
   C        0.49972        -0.64119        -2.16997
   N        1.12591        -1.82161        -2.42149
   C        2.11748        -2.36137        -1.68654
   S        2.70169        -1.63010        -0.22510
   C        3.73210        -3.01155         0.03626
   N        4.54288        -2.99347         1.16383
   O        5.27030        -3.95393         1.36326
   O        4.46507        -2.00487         1.88195
   C        3.61920        -3.97078        -0.93915
   C        2.71614        -3.60970        -1.94648
   C        2.36685        -4.33893        -3.13102
   C        2.32118        -5.67647        -3.26376
   C        1.84483        -6.37069        -4.41780
   S        2.24143        -8.06076        -4.47462
   C        1.43353        -8.28806        -5.99656
   C        0.91740        -7.08347        -6.45572
   C        1.10066        -5.99882        -5.53963
   C        0.41022        -4.72175        -5.75675
   O        0.31621        -3.83635        -4.91268
   C       -0.23401        -4.55528        -7.07107
   C       -0.84404        -3.33677        -7.36314
   C       -1.45049        -3.12459        -8.58440
   C       -1.47586        -4.12525        -9.55132
   C       -2.10286        -3.88872       -10.89216
   C       -1.03953        -3.44982       -11.90191
   C       -0.86243        -5.33694        -9.26566
   C       -0.24106        -5.56123        -8.04279
   C        0.39155        -6.87353        -7.81056
   O        0.51063        -7.68620        -8.71062
   C        1.35555        -9.63332        -6.46172
   C        0.44818       -10.14068        -7.32379
   C        0.36624       -11.51412        -7.66915
   C       -0.60186       -12.08494        -8.48769
   C       -1.61648       -11.30537        -9.06739
   N       -2.43723       -10.63596        -9.50695
   C       -0.44660       -13.48882        -8.62455
   C        0.65066       -13.94398        -7.89958
   S        1.49612       -12.70518        -7.05772
   S        0.92675       -15.65344        -7.97482
   C       -0.46709       -15.77659        -9.00061
   C       -1.10543       -14.57216        -9.27834
   C       -2.22910       -14.76988       -10.11843
   C       -3.09114       -13.77734       -10.60126
   N       -3.82924       -13.00976       -11.03007
   C       -2.42491       -16.11568       -10.44879
   S       -1.20784       -17.15131        -9.72794
   C       -3.46949       -16.60301       -11.25358
   C       -3.74231       -17.90593       -11.56897
   C       -4.82867       -18.34482       -12.37643
   C       -4.90807       -19.69043       -12.52640
   C       -3.88824       -20.40679       -11.84890
   S       -2.81623       -19.28888       -11.01864
   C       -3.70176       -21.76541       -11.79284
   C       -4.49874       -22.77254       -12.41173
   C       -4.08144       -24.03422       -12.17574
   C       -2.91267       -24.12783       -11.34636
   S       -2.38889       -22.49661       -10.89497
   C       -2.27927       -25.23743       -10.94561
   H       -6.39095        -0.76017        -8.89194
   H       -5.20713        -2.16226        -8.77113
   H       -6.11557         1.23387        -7.13913
   H       -4.60290         1.92786        -5.17706
   H       -2.96151         2.07952        -3.49249
   H       -0.98850         1.70462        -1.88458
   H        0.88445        -0.05973        -1.34436
   H        0.77489        -2.37271        -3.20476
   H        4.19780        -4.87617        -0.92681
   H        2.05811        -3.73164        -3.96569
   H        2.65335        -6.31223        -2.45312
   H       -0.83377        -2.56347        -6.61013
   H       -1.91752        -2.17234        -8.78859
   H       -2.86733        -3.11339       -10.81342
   H       -2.57464        -4.80717       -11.24534
   H       -0.56311        -2.52829       -11.57443
   H       -1.49069        -3.28087       -12.87645
   H       -0.27402        -4.21554       -12.00131
   H       -0.86039        -6.13930        -9.98948
   H        2.05545       -10.31468        -5.98944
   H       -0.28774        -9.50631        -7.79447
   H       -4.13550       -15.84860       -11.65387
   H       -5.51283       -17.63821       -12.81176
   H       -5.66763       -20.19138       -13.09903
   H       -5.35555       -22.51773       -13.00970
   H       -4.55525       -24.92160       -12.55624
   H       -2.63236       -26.20916       -11.24260
   H       -1.40642       -25.19578       -10.32028
*
