# ORCA input file
# SCF done       -217.255913932858          0.000392941536
! CAM-B3LYP def2-SVP def2/J RIJCOSX Grid4 TightSCF
%maxcore 5000
%tddft
    Mode sTDDFT
    Ethresh 5.0
    maxcore 5000
end

%pal
  nprocs 6
  end
* xyz 0 1
   C        6.20412        -3.79852        14.00050
   C        6.91951        -3.63641        12.87751
   C        7.69169        -2.49620        12.48152
   C        8.30791        -2.63006        11.28336
   C        8.07453        -3.87586        10.64341
   S        7.03565        -4.88090        11.62245
   C        8.57301        -4.29476         9.42279
   C        9.41489        -3.58839         8.54136
   C        9.73873        -4.28779         7.41147
   C        9.17192        -5.57325         7.34610
   S        8.20137        -5.87555         8.76822
   C        9.34283        -6.50298         6.32761
   C        8.78044        -7.76084         6.30856
   C        8.98281        -8.70048         5.30391
   C        8.46254       -10.00274         5.24849
   C        8.86412       -10.72191         4.15252
   C        9.71780       -10.01036         3.29409
   S        9.99126        -8.39781         3.90579
   C       10.32928       -10.45854         2.12895
   C       10.26899       -11.74130         1.55427
   C       11.04226       -11.88476         0.43862
   C       11.74465       -10.71602         0.06359
   S       11.37215        -9.41967         1.18616
   C       12.67519       -10.61501        -0.94028
   C       13.40015        -9.45869        -1.29865
   S       15.10237        -9.67892        -1.64269
   C       15.38469        -7.96995        -1.63810
   C       14.19649        -7.27661        -1.46781
   C       13.06806        -8.10561        -1.32360
   C       11.67690        -7.53925        -1.47032
   C       10.85147        -8.34989        -2.47528
   F       11.55979        -8.69131        -3.56076
   F       10.33058        -9.48150        -1.98469
   F        9.79569        -7.64768        -2.92394
   C       11.76486        -6.10582        -2.01535
   C       12.70014        -5.27971        -1.15159
   C       14.14468        -5.78510        -1.28224
   C       14.87232        -5.37751         0.00321
   F       14.40453        -6.02515         1.07950
   F       16.19417        -5.56323        -0.01762
   F       14.69512        -4.06505         0.25280
   C       16.68938        -7.44807        -1.87788
   C       17.85535        -7.97878        -1.43866
   C       18.04978        -8.92704        -0.38838
   C       19.30110        -9.59243        -0.29035
   C       19.64030       -10.43830         0.82261
   N       20.73988       -11.19841         0.76152
   C       21.59173       -11.02537        -0.21756
   C       21.34808       -10.03349        -1.22157
   N       20.19967        -9.40279        -1.26640
   C       22.33126        -9.76555        -2.20430
   N       23.15354        -9.57815        -2.98006
   C       22.75956       -11.82502        -0.24697
   N       23.73082       -12.43312        -0.25365
   C       18.81166       -10.52778         1.96665
   C       17.55558        -9.89659         1.86229
   C       17.17165        -9.12219         0.70384
   N       15.96180        -8.58335         0.86849
   S       15.37741        -8.99595         2.30323
   N       16.61816        -9.88152         2.80884
   C       19.18198       -11.26731         3.11930
   C       20.47263       -11.46804         3.51880
   C       20.96030       -12.46606         4.44722
   C       20.20955       -13.38902         5.13164
   C       20.74621       -14.34243         6.02085
   N       21.11759       -15.13541         6.76386
   C       18.80687       -13.51362         5.06167
   N       17.67198       -13.69087         5.05455
   C       22.41536       -12.36294         4.48247
   C       22.81802       -11.27663         3.66750
   C       21.62234       -10.61373         3.11627
   O       21.59069        -9.52436         2.58131
   C       24.13461       -10.93554         3.47999
   C       25.10574       -11.71061         4.12178
   C       24.69564       -12.79070         4.93905
   C       23.36292       -13.13157         5.13305
   S       26.05623       -13.60772         5.64615
   C       27.14129       -12.50365         4.84374
   C       26.51991       -11.57071         4.08453
  Br       28.99030       -12.68352         5.09085
   H        6.15905        -3.01836        14.73970
   H        5.65864        -4.70302        14.19793
   H        7.75197        -1.62685        13.11140
   H        8.92706        -1.87486        10.83314
   H        9.76174        -2.59361         8.75447
   H       10.37194        -3.91247         6.62707
   H        9.97549        -6.20737         5.49994
   H        8.14522        -8.05747         7.13382
   H        7.81234       -10.38301         6.01636
   H        8.56631       -11.73524         3.95376
   H        9.67379       -12.52839         1.98034
   H       11.13069       -12.79353        -0.12865
   H       12.98953       -11.54177        -1.40253
   H       11.12791        -7.54770        -0.52143
   H       10.77296        -5.65400        -2.02023
   H       12.13434        -6.13351        -3.04332
   H       12.38023        -5.36139        -0.11029
   H       12.65233        -4.22903        -1.43753
   H       14.66365        -5.28183        -2.10623
   H       16.73796        -6.56619        -2.50584
   H       18.77593        -7.61327        -1.87313
   H       18.36130       -11.69452         3.68002
   H       24.40908       -10.10272         2.85183
   H       23.10324       -13.96344         5.76625
   H       27.03438       -10.81498         3.51964
*
