# ORCA input file
# SCF done       -158.714409939467          0.001921276678
! CAM-B3LYP def2-SVP def2/J RIJCOSX Grid4 TightSCF
%maxcore 5000
%tddft
    Mode sTDDFT
    Ethresh 5.0
    maxcore 5000
end

%pal
  nprocs 6
  end
* xyz 0 1
   C       17.24270        -1.85606        -4.20909
   C       16.49908        -1.95987        -3.09929
   C       16.60297        -1.18332        -1.89637
   C       15.70893        -1.51409        -0.93888
   C       14.82347        -2.56912        -1.30162
   S       15.18761        -3.13832        -2.91809
   C       13.80633        -3.10208        -0.54685
   C       13.42158        -2.74846         0.77054
   C       12.37657        -3.47024         1.24920
   C       11.86725        -4.43702         0.34109
   S       12.77053        -4.38568        -1.15715
   C       10.84851        -5.31123         0.60745
   C       10.30166        -6.28782        -0.23923
   S       10.66501        -6.49628        -1.92140
   C        9.60787        -7.86716        -2.01640
   C        9.46497        -8.56926        -3.27517
   O       10.02965        -8.28299        -4.30404
   O        8.61764        -9.61863        -3.18795
   C        9.00104        -8.15171        -0.81194
   C        9.38606        -7.26697         0.19476
   O        9.05536        -7.26661         1.50528
   C        8.61798        -8.36109         2.15904
   C        8.83180        -8.38899         3.49338
   C        8.54287        -9.43412         4.39089
   C        9.00867        -9.40850         5.68054
   C        8.86816       -10.38059         6.70103
   C        9.49071       -10.06141         7.87133
   C       10.16142        -8.81879         7.84232
   S        9.97093        -8.06241         6.28093
   C       10.89768        -8.19016         8.82949
   C       11.18717        -8.61518        10.14134
   C       11.95414        -7.73234        10.84095
   C       12.31598        -6.56230        10.12158
   S       11.64358        -6.63722         8.51074
   C       13.03479        -5.52458        10.66915
   C       13.44856        -4.30270        10.11224
   S       14.05117        -3.08735        11.21022
   C       14.28711        -1.93849         9.92258
   C       14.79156        -0.58176        10.11981
   O       14.99688         0.16617         9.19851
   O       15.02302        -0.19848        11.39070
   C       13.92977        -2.48288         8.71186
   C       13.48071        -3.80618         8.79873
   O       13.04598        -4.58037         7.77065
   C       13.57166        -4.56632         6.52898
   C       14.69890        -3.96376         6.09843
   C       15.22652        -4.01446         4.77934
   C       14.84162        -4.75714         3.69994
   C       15.48506        -4.72984         2.42789
   C       14.99451        -5.60734         1.51826
   C       13.92491        -6.40110         2.00447
   S       13.54460        -5.94749         3.65696
   C       13.25237        -7.41014         1.36472
   C       13.39208        -7.83909         0.01613
   C       12.58697        -8.86931        -0.32598
   C       11.75260        -9.35001         0.73811
   S       12.04788        -8.38417         2.19046
   C       10.87413       -10.36249         0.69970
   H       18.02914        -1.12483        -4.27754
   H       17.07966        -2.49101        -5.06057
   H       17.34421        -0.40900        -1.80687
   H       15.64254        -1.03477         0.02180
   H       13.93004        -1.98037         1.32483
   H       11.94922        -3.35064         2.22902
   H       10.42475        -5.27981         1.60277
   H        8.55257       -10.04437        -4.05680
   H        8.31372        -8.96970        -0.69944
   H        8.15655        -9.16104         1.59625
   H        9.34635        -7.52970         3.90379
   H        7.98573       -10.29610         4.05252
   H        8.31422       -11.28799         6.53627
   H        9.48887       -10.68372         8.74853
   H       10.82589        -9.54873        10.53494
   H       12.27267        -7.87916        11.85822
   H       13.28669        -5.64582        11.71630
   H       14.81273        -0.89026        12.03153
   H       13.96616        -1.90734         7.80506
   H       12.94875        -5.16802         5.88348
   H       15.28746        -3.38808         6.79915
   H       16.08910        -3.38139         4.61075
   H       16.30709        -4.06090         2.24004
   H       15.37587        -5.72474         0.51974
   H       14.07474        -7.35342        -0.65828
   H       12.54704        -9.32077        -1.30153
   H       10.72047       -10.91953        -0.20793
   H       10.31443       -10.65623         1.56916
*
