# ORCA input file
# SCF done       -199.464095987876          0.000498869861
! CAM-B3LYP def2-SVP def2/J RIJCOSX Grid4 TightSCF
%maxcore 5000
%tddft
    Mode sTDDFT
    Ethresh 5.0
    maxcore 5000
end

%pal
  nprocs 6
  end
* xyz 0 1
   C       -2.35354         0.52174        -2.57961
   C       -1.86645         1.76376        -2.95381
   C       -1.72164         2.74511        -1.97140
   C       -1.22377         4.02164        -2.33411
   N       -0.81990         5.04976        -2.63432
   C       -2.05942         2.49243        -0.62764
   C       -1.90250         3.51092         0.34338
   N       -1.78067         4.32284         1.14146
   C       -2.54535         1.23905        -0.25409
   C       -2.68252         0.27910        -1.23425
   C       -3.16628        -1.11065        -1.07871
   O       -3.50505        -1.61978        -0.03346
   C       -3.09606        -1.71051        -2.43023
   C       -2.62557        -0.68981        -3.35425
   C       -2.50117        -0.78762        -4.71463
   C       -2.04523         0.26009        -5.54598
   N       -1.68317         1.06635        -6.27726
   C       -2.82057        -1.91480        -5.50370
   N       -3.06392        -2.77699        -6.22192
   C       -3.33638        -3.01104        -2.79025
   C       -3.85863        -4.09744        -2.06503
   C       -4.41651        -4.20896        -0.79513
   C       -4.84683        -5.49851        -0.52480
   C       -4.61632        -6.39870        -1.59188
   S       -3.88388        -5.64834        -2.92494
   C       -5.08722        -7.67824        -1.20796
   C       -5.61522        -7.59126         0.09166
   C       -5.48508        -6.22108         0.56425
   C       -5.88832        -5.73061         1.76973
   C       -6.48916        -6.56077         2.74160
   N       -6.97005        -7.24059         3.52927
   C       -5.75209        -4.37345         2.13817
   N       -5.66644        -3.27798         2.46214
   C       -6.11571        -8.80760         0.55240
   C       -5.96362        -9.81741        -0.38039
   S       -5.19877        -9.25544        -1.85716
   C       -6.40864       -11.16474        -0.21916
   C       -6.20208       -12.26907        -1.01834
   C       -5.42090       -12.24433        -2.29143
   O       -5.92002       -12.38898        -3.36797
   O       -4.09717       -12.04874        -2.14974
   C       -6.89085       -13.42757        -0.55289
   C       -7.58890       -13.16977         0.60295
   S       -7.44700       -11.55583         1.12899
   C       -6.84889       -14.73267        -1.16369
   C       -7.78148       -15.73441        -0.99766
   C       -7.41961       -16.90109        -1.67493
   C       -6.19589       -16.77855        -2.35341
   S       -5.50490       -15.23087        -2.16730
   C       -5.89740       -18.01689        -2.98057
   C       -6.94280       -18.91860        -2.69281
   C       -7.92724       -18.24943        -1.85881
   C       -9.05213       -18.80218        -1.32108
   C       -9.38505       -20.15329        -1.55517
   N       -9.63049       -21.25478        -1.75788
   C       -9.92724       -18.06470        -0.49630
   N      -10.63055       -17.45503         0.17277
   C       -6.72207       -20.18573        -3.21017
   C       -5.51345       -20.27262        -3.88964
   S       -4.66839       -18.72685        -3.91390
   C       -4.94617       -21.38638        -4.53970
   C       -5.24692       -22.70821        -4.38075
   C       -4.84103       -23.66494        -5.44543
   O       -4.08696       -23.45277        -6.36422
   C       -5.60000       -24.90493        -5.16104
   C       -5.67766       -26.05887        -5.91154
   C       -6.49916       -27.08918        -5.45020
   C       -7.22961       -26.93274        -4.25640
   C       -7.13595       -25.76366        -3.49866
   C       -6.30788       -24.75206        -3.95275
   C       -5.97737       -23.44778        -3.37366
   C       -6.10495       -23.14018        -2.04497
   C       -5.56171       -21.98681        -1.44469
   N       -5.11469       -21.07795        -0.90458
   C       -6.70860       -23.99075        -1.09289
   N       -7.18201       -24.64660        -0.28002
   C       -8.07604       -27.98151        -3.81750
   N       -8.76326       -28.82402        -3.45956
   C       -6.60412       -28.29276        -6.18875
   N       -6.67544       -29.25875        -6.79929
   H       -1.59384         1.99797        -3.97017
   H       -2.80857         1.02387         0.77045
   H       -3.08617        -3.27181        -3.81183
   H       -4.48630        -3.37603        -0.11872
   H       -6.56792        -8.96764         1.51451
   H       -3.81610       -11.97947        -1.22746
   H       -8.16789       -13.86333         1.17882
   H       -8.68476       -15.61297        -0.42914
   H       -7.41566       -21.00378        -3.14158
   H       -4.21459       -21.17559        -5.31382
   H       -5.11971       -26.16222        -6.82974
   H       -7.71545       -25.67186        -2.59359
*
