# ORCA input file
# SCF done       -206.358381531611          0.000854496584
! CAM-B3LYP def2-SVP def2/J RIJCOSX Grid4 TightSCF
%maxcore 5000
%tddft
    Mode sTDDFT
    Ethresh 5.0
    maxcore 5000
end

%pal
  nprocs 6
  end
* xyz 0 1
   C      -14.60368        -9.86194        10.99107
   C      -15.23431        -9.60168        12.19651
   C      -16.61513        -9.79316        12.28089
   C      -17.27871        -9.53396        13.50566
   N      -17.80856        -9.31893        14.49741
   C      -17.36124       -10.23955        11.17359
   C      -18.75978       -10.42354        11.28883
   N      -19.89203       -10.57974        11.36009
   C      -16.72138       -10.50017         9.96103
   C      -15.35853       -10.30713         9.89219
   C      -14.46951       -10.51335         8.72561
   O      -14.83828       -10.90780         7.63780
   C      -13.11907       -10.13825         9.18217
   C      -13.20032        -9.76617        10.58313
   C      -12.17575        -9.40915        11.42216
   C      -12.34875        -9.06256        12.78010
   N      -12.41419        -8.76651        13.88706
   C      -10.80348        -9.34075        11.09730
   N       -9.66799        -9.26499        10.94052
   C      -11.95266       -10.07831         8.45228
   C      -11.66380       -10.39412         7.12023
   C      -12.42774       -10.92995         6.07862
   C      -11.71140       -11.06072         4.91175
   C      -10.37511       -10.62846         5.03053
   S      -10.00279       -10.06738         6.59708
   C       -9.74048       -10.76889         3.78451
   C      -10.65717       -11.28888         2.85654
   C      -11.99453       -11.54076         3.50835
   C      -13.10385       -10.72049         2.84476
   C      -12.34538       -13.03208         3.49131
   C      -10.12795       -11.42278         1.58922
   C       -8.79773       -11.00439         1.53365
   S       -8.20314       -10.45272         3.09025
   C       -7.99694       -10.96307         0.38135
   C       -8.39488       -11.28400        -0.92652
   C       -7.35616       -11.06404        -1.89248
   N       -7.54121       -11.29978        -3.18916
   C       -8.72607       -11.74314        -3.55298
   C       -8.93847       -12.01542        -4.99566
   O       -8.06551       -11.86931        -5.82499
   C      -10.29129       -12.48275        -5.34610
   C      -11.26555       -12.67965        -4.45116
   C      -11.10414       -12.45025        -3.00633
   O      -11.99817       -12.64686        -2.20900
   C       -9.76593       -11.95773        -2.59453
   N       -9.59221       -11.73107        -1.30950
   C       -6.16267       -10.58650        -1.33413
   S       -6.34052       -10.42421         0.38479
   C       -5.01195       -10.25018        -2.06006
   C       -3.77691        -9.82122        -1.57149
   C       -2.89210        -9.53992        -2.59166
   C       -3.45571        -9.74179        -3.86299
   S       -5.07271       -10.31288        -3.80977
   C       -2.50789        -9.37682        -4.83575
   C       -1.32270        -8.97018        -4.20449
   C       -1.47138        -9.03863        -2.70316
   C       -0.48067       -10.02510        -2.07853
   C       -1.32299        -7.64711        -2.08052
   C       -0.34515        -8.58849        -5.10063
   C       -0.78591        -8.63416        -6.42266
   S       -2.43095        -9.24959        -6.53759
   C       -0.03176        -8.29421        -7.56153
   C       -0.48225        -7.94381        -8.80347
   C        0.40143        -8.09011        -9.98467
   O        1.58976        -8.31067        -9.98980
   C       -0.50120        -7.96426       -11.15597
   C       -0.20938        -8.13909       -12.49165
   C       -1.24548        -7.99308       -13.41660
   C       -2.54713        -7.68085       -12.97982
   C       -2.83011        -7.49590       -11.62486
   C       -1.79810        -7.63510       -10.71416
   C       -1.76855        -7.47069        -9.26028
   C       -2.66494        -6.72527        -8.53886
   C       -2.44596        -6.33019        -7.20247
   N       -2.27614        -5.94891        -6.13309
   C       -3.84846        -6.18086        -9.07753
   N       -4.82735        -5.72776        -9.46898
   C       -3.58869        -7.55285       -13.93193
   N       -4.43658        -7.44873       -14.69394
   C       -0.98753        -8.16576       -14.79778
   N       -0.75758        -8.30727       -15.91065
   H      -14.70148        -9.25661        13.06770
   H      -17.27587       -10.84286         9.10058
   H      -11.08884        -9.70640         8.99015
   H      -13.46152       -11.19111         6.20931
   H      -12.85262        -9.66226         2.85404
   H      -14.03878       -10.86176         3.38031
   H      -13.23396       -11.04016         1.81432
   H      -11.55486       -13.61495         3.95891
   H      -12.47038       -13.37021         2.46617
   H      -13.27131       -13.19992         4.03480
   H      -10.63914       -11.78645         0.71643
   H      -10.45157       -12.66578        -6.40005
   H      -12.24422       -13.02758        -4.75310
   H       -3.57886        -9.73050        -0.51841
   H       -0.59171       -11.00988        -2.52656
   H       -0.65973       -10.10571        -1.00955
   H        0.53796        -9.68161        -2.23832
   H       -2.01040        -6.94856        -2.55108
   H       -0.30879        -7.28313        -2.22113
   H       -1.53719        -7.69008        -1.01580
   H        0.63756        -8.23841        -4.84130
   H        1.04618        -8.38577        -7.46627
   H        0.79174        -8.38199       -12.81393
   H       -3.83850        -7.26296       -11.32068
*
