# ORCA input file
# SCF done       -223.576359956332          0.000405081160
! CAM-B3LYP def2-SVP def2/J RIJCOSX Grid4 TightSCF
%maxcore 5000
%tddft
    Mode sTDDFT
    Ethresh 5.0
    maxcore 5000
end

%pal
  nprocs 6
  end
* xyz 0 1
   C       11.53034         8.89535        -6.91956
   C       11.85019         8.60805        -8.21856
   C       11.45274         7.39148        -8.79321
   C       10.74042         6.48138        -8.06123
   C       10.38903         6.74641        -6.72202
   C        9.63610         5.81752        -5.96853
   C        9.30557         6.11917        -4.67623
   C        9.74380         7.33950        -4.08275
   C       10.46674         8.25609        -4.79099
   C       10.79719         7.98069        -6.13753
   C        9.31384         7.37784        -2.67211
   O        9.45633         8.27224        -1.86933
   C        8.72011         6.03465        -2.41459
   C        8.50715         5.39147        -3.70055
   C        7.53032         4.48466        -4.00934
   C        6.57872         4.01342        -3.08059
   N        5.74560         3.65053        -2.37858
   C        7.30881         3.97006        -5.30172
   N        7.07044         3.50437        -6.32396
   C        8.60255         5.57163        -1.14232
   C        8.45185         4.21877        -0.74336
   C        7.93253         3.74070         0.44444
   C        7.87444         2.34660         0.51787
   C        7.32949         1.62616         1.66938
   C        6.06422         1.97719         2.17119
   C        5.55447         1.30992         3.27968
   C        6.30245         0.31944         3.88805
   C        7.55287        -0.03177         3.41500
   C        8.07235         0.61872         2.30241
   O        9.29260         0.35702         1.75668
   C       10.11434        -0.60888         2.36827
   O        5.41437         2.95502         1.49650
   C        4.09187         3.27442         1.85607
   C        8.36701         1.74139        -0.64371
   S        8.95555         2.91626        -1.77959
   C        8.29965         0.41478        -1.09654
   C        8.57216         0.05601        -2.42660
   C        8.30920        -1.32132        -2.72596
   N        8.45329        -1.78963        -3.96667
   C        8.86111        -0.94137        -4.88594
   C        8.97390        -1.44374        -6.27950
   O        8.70310        -2.58039        -6.60050
   C        9.42520        -0.44459        -7.26682
   C        9.70630         0.82826        -6.97054
   C        9.60545         1.38423        -5.61400
   O        9.88766         2.53985        -5.36137
   C        9.14492         0.42931        -4.58097
   N        8.98916         0.90162        -3.36179
   C        7.84656        -2.03225        -1.61130
   S        7.74108        -0.97342        -0.22921
   C        7.47945        -3.38820        -1.57421
   C        6.81518        -4.04626        -0.54457
   C        6.53246        -5.36684        -0.84379
   C        5.79982        -6.25439         0.06752
   C        4.53209        -5.86621         0.52598
   C        3.82551        -6.69555         1.38775
   C        4.38587        -7.89247         1.79460
   C        5.64070        -8.28209         1.36949
   C        6.35645        -7.46655         0.50067
   O        7.60912        -7.73923         0.04323
   C        8.18100        -8.98550         0.36647
   O        4.07195        -4.67455         0.05037
   C        2.78382        -4.25150         0.42518
   C        6.99659        -5.74855        -2.12319
   S        7.82069        -4.43023        -2.91730
   C        6.70813        -7.00238        -2.67882
   C        7.06308        -7.52913        -3.89604
   C        6.65834        -8.81736        -4.41647
   C        6.00039        -9.81792        -3.74328
   C        5.62965       -11.04823        -4.32308
   N        5.29419       -12.06924        -4.72892
   C        5.64678        -9.80370        -2.38067
   N        5.35234        -9.90874        -1.27391
   C        7.12356        -8.90274        -5.79887
   C        7.87453        -7.72969        -6.09492
   C        8.44322        -7.51856        -7.31630
   C        8.28375        -8.49674        -8.32425
   C        8.84422        -8.33762        -9.60633
   C        8.67888        -9.29876       -10.56675
   C        7.94527       -10.46061       -10.28617
   C        7.38613       -10.64463        -9.05068
   C        7.53668        -9.67537        -8.03853
   C        6.95814        -9.86291        -6.76095
   C        7.89145        -6.85822        -4.90953
   O        8.49118        -5.80704        -4.79159
   H       11.83534         9.83021        -6.47205
   H       12.41187         9.31569        -8.81018
   H       11.71336         7.18066        -9.81982
   H       10.42756         5.54479        -8.49867
   H        9.35836         4.87493        -6.41228
   H       10.78468         9.18059        -4.33200
   H        8.70018         6.31020        -0.35302
   H        7.56575         4.38479         1.22271
   H        4.58357         1.55864         3.67536
   H        5.90249        -0.18996         4.75169
   H        8.11032        -0.80617         3.91480
   H        9.65004        -1.59972         2.35187
   H       10.35738        -0.33377         3.39890
   H       11.02853        -0.63075         1.77711
   H        4.03893         3.69981         2.86374
   H        3.43595         2.40098         1.79338
   H        3.76903         4.01940         1.13094
   H        9.50869        -0.81528        -8.27978
   H       10.02512         1.52656        -7.73233
   H        6.53681        -3.56329         0.37553
   H        2.84477        -6.42274         1.74108
   H        3.83058        -8.53551         2.46015
   H        6.04450        -9.22141         1.70531
   H        9.13008        -9.01775        -0.16661
   H        7.54509        -9.81049         0.03278
   H        8.36717        -9.07512         1.44143
   H        2.01594        -4.96134         0.10230
   H        2.63049        -3.30043        -0.08264
   H        2.70776        -4.09957         1.50687
   H        6.08020        -7.61864        -2.04698
   H        9.00082        -6.61449        -7.51018
   H        9.40737        -7.43995        -9.81557
   H        9.11210        -9.16894       -11.54739
   H        7.82450       -11.20990       -11.05433
   H        6.82006       -11.53792        -8.83027
   H        6.39325       -10.76376        -6.58126
*
