# ORCA input file
# SCF done       -151.919325029873          0.000497866879
! CAM-B3LYP def2-SVP def2/J RIJCOSX Grid4 TightSCF
%maxcore 5000
%tddft
    Mode sTDDFT
    Ethresh 5.0
    maxcore 5000
end

%pal
  nprocs 6
  end
* xyz 0 1
   C       -2.05555         1.06404        -3.93161
   C       -1.33861         0.73642        -2.78538
   N       -1.55190        -0.38763        -2.13030
   C       -2.49309        -1.21205        -2.60590
   C       -3.21513        -0.86734        -3.75851
   N       -2.99272         0.25636        -4.40858
   C       -2.71383        -2.43572        -1.88007
   C       -2.06465        -2.82609        -0.72695
   C       -2.51554        -4.06579        -0.27181
   C       -3.51596        -4.61609        -1.09642
   S       -3.89698        -3.60954        -2.41950
   C       -3.91671        -5.86528        -0.56459
   C       -3.16760        -6.10430         0.60637
   C       -2.26166        -4.98569         0.82436
   C       -1.36335        -4.84055         1.83998
   C       -1.20713        -5.81448         2.84951
   N       -1.07135        -6.60095         3.67274
   C       -0.52557        -3.71033         1.95243
   N        0.16187        -2.79861         2.05396
   C       -3.48944        -7.30982         1.21286
   C       -4.47374        -7.99800         0.51158
   S       -5.00556        -7.13315        -0.92282
   C       -5.03363        -9.25775         0.84229
   C       -5.99626        -9.86837         0.00738
   C       -6.56722       -11.15752         0.30221
   N       -7.46439       -11.68764        -0.53510
   C       -7.82358       -11.03491        -1.61447
   C       -7.26034        -9.75037        -1.90450
   N       -6.37642        -9.21640        -1.09602
   C       -7.64965        -9.04168        -3.06753
   N       -7.98454        -8.49025        -4.01374
   C       -8.77449       -11.61648        -2.48853
   N       -9.54146       -12.06367        -3.21209
   C       -6.21550       -11.89599         1.45442
   C       -5.26294       -11.28124         2.30188
   C       -4.68141        -9.99177         2.00015
   N       -3.80901        -9.62020         2.93744
   S       -3.72186       -10.75158         4.06899
   N       -4.78065       -11.77766         3.44148
   C       -6.79083       -13.16581         1.71190
   C       -6.55924       -13.98134         2.81437
   C       -7.27787       -15.16588         2.74313
   C       -8.06172       -15.25944         1.57426
   S       -7.92261       -13.88091         0.57335
   C       -8.73693       -16.50349         1.59526
   C       -8.38741       -17.19559         2.77106
   C       -7.46272       -16.37407         3.53408
   C       -6.89120       -16.66482         4.73753
   C       -7.14509       -17.87202         5.42317
   N       -7.34381       -18.84756         5.99148
   C       -6.00614       -15.77498         5.38326
   N       -5.28724       -15.05812         5.91617
   C       -9.00518       -18.44329         2.86498
   C       -9.81218       -18.69963         1.77569
   S       -9.81840       -17.38676         0.61593
   C      -10.58203       -19.89567         1.55264
   C      -11.36634       -20.09639         0.40678
   N      -12.05847       -21.20178         0.22237
   C      -11.98991       -22.13116         1.16552
   C      -11.21558       -21.94330         2.30586
   N      -10.51985       -20.84030         2.49902
   H       -1.88498         1.97962        -4.47901
   H       -0.57431         1.38484        -2.37988
   H       -3.98586        -1.51350        -4.15854
   H       -1.30853        -2.21652        -0.26740
   H       -3.05491        -7.70156         2.11404
   H       -5.89272       -13.69121         3.60555
   H       -8.89298       -19.14978         3.66670
   H      -11.43208       -19.34850        -0.37289
   H      -12.56353       -23.03101         0.99741
   H      -11.14796       -22.69014         3.08473
*
