# ORCA input file
# SCF done       -189.101486082667          0.000544706788
! CAM-B3LYP def2-SVP def2/J RIJCOSX Grid4 TightSCF
%maxcore 5000
%tddft
    Mode sTDDFT
    Ethresh 5.0
    maxcore 5000
end

%pal
  nprocs 6
  end
* xyz 0 1
   C        1.01158        -1.51854         4.83448
   F        1.26611        -1.61947         6.14009
   C        0.84767        -0.26554         4.25180
   F        0.93913         0.84100         4.98853
   C        0.58185        -0.18725         2.88779
   F        0.40635         1.00292         2.31198
   C        0.48944        -1.34369         2.12583
   F        0.19912        -1.20770         0.82810
   C        0.66044        -2.62334         2.67882
   C        0.91537        -2.66448         4.05841
   F        1.09479        -3.84493         4.66496
   C        0.57630        -3.82071         1.87565
   C        0.78609        -3.93689         0.51494
   C        0.61298        -5.24703         0.06962
   C        0.25149        -6.13296         1.10261
   S        0.15676        -5.36216         2.61466
   C        0.08807        -7.43195         0.55766
   C        0.35516        -7.36222        -0.82335
   C        0.69443        -5.99130        -1.17482
   C        1.02265        -5.51674        -2.41073
   C        1.06194        -6.34872        -3.54993
   N        1.09766        -7.01353        -4.48362
   C        1.35330        -4.16397        -2.63874
   N        1.63469        -3.06936        -2.83145
   C        0.22877        -8.59074        -1.45804
   C       -0.14019        -9.59696        -0.57385
   S       -0.33346        -9.01002         1.06616
   C       -0.35593       -10.96495        -0.89654
   C       -0.78935       -11.89965         0.06829
   C       -1.04016       -13.28367        -0.22504
   N       -1.44323       -14.09714         0.77218
   C       -1.60333       -13.62323         1.96487
   C       -1.36764       -12.25330         2.25275
   N       -0.97510       -11.44340         1.32512
   F       -1.53895       -11.76386         3.47589
   F       -1.99217       -14.46018         2.91917
   C       -0.86179       -13.80680        -1.53023
   C       -0.40006       -12.87562        -2.49002
   C       -0.15557       -11.48655        -2.19451
   N        0.26727       -10.82701        -3.27445
   S        0.34988       -11.82924        -4.52024
   N       -0.14484       -13.15911        -3.76755
   C       -1.11506       -15.15235        -1.90529
   C       -1.64562       -16.18815        -1.14294
   C       -1.76114       -17.36599        -1.86724
   C       -1.30583       -17.23658        -3.19662
   S       -0.75460       -15.66347        -3.55268
   C       -1.47016       -18.48374        -3.84441
   C       -2.02758       -19.40104        -2.93909
   C       -2.22189       -18.73316        -1.66267
   C       -2.72126       -19.27353        -0.51539
   C       -3.09466       -20.63141        -0.41449
   N       -3.37987       -21.73624        -0.30359
   C       -2.89007       -18.51938         0.66627
   N       -3.04163       -17.92297         1.63329
   C       -2.24895       -20.65943        -3.50828
   C       -1.84711       -20.71417        -4.82380
   S       -1.19853       -19.17688        -5.38007
   C       -2.03033       -21.83607        -5.72108
   C       -1.14085       -22.16697        -6.69965
   O       -1.32341       -23.18456        -7.55407
   C       -2.44756       -23.93985        -7.48336
   C       -2.59525       -24.97137        -8.41054
   C       -3.72335       -25.76124        -8.37010
   C       -4.71104       -25.53766        -7.41352
   C       -4.56503       -24.52125        -6.49786
   C       -3.42986       -23.70608        -6.51968
   C       -3.27374       -22.61642        -5.54647
   O       -4.10816       -22.37400        -4.69436
   C        0.16233       -21.47793        -6.95078
   H        1.06995        -3.11752        -0.11870
   H        0.38848        -8.77972        -2.50325
   H       -1.92575       -16.05393        -0.11526
   H       -2.68406       -21.49890        -2.99888
   H       -1.81957       -25.12872        -9.14314
   H       -3.84059       -26.55924        -9.08726
   H       -5.58984       -26.16320        -7.39364
   H       -5.31085       -24.32167        -5.74372
   H        0.64247       -21.19420        -6.01819
   H        0.00920       -20.57887        -7.54665
   H        0.81158       -22.14916        -7.50779
*
