# ORCA input file
# SCF done       -222.682459574431          0.000295460144
! CAM-B3LYP def2-SVP def2/J RIJCOSX Grid4 TightSCF
%maxcore 5000
%tddft
    Mode sTDDFT
    Ethresh 5.0
    maxcore 5000
end

%pal
  nprocs 6
  end
* xyz 0 1
   C        0.28294         2.22205         1.40265
   C        0.65555         0.94719         1.06522
   C        1.99330         0.49835         1.03269
   N        3.05854         0.07349         0.98932
   C       -0.21958        -0.08990         0.67763
   N       -0.86252        -0.97980         0.34123
   C        1.19807         3.30601         1.74497
   C        0.44815         4.49425         1.93186
   C        1.02655         5.69641         2.26045
   C        2.41581         5.72785         2.41837
   C        3.15826         4.53611         2.23457
   C        2.57183         3.32183         1.89808
   S        4.85680         4.79712         2.48410
   C        4.55265         6.47968         2.82694
   C        3.24592         6.83034         2.75808
  Br        5.98700         7.61234         3.24429
   C       -0.97764         4.20013         1.72659
   O       -1.89804         4.99641         1.79273
   C       -1.06538         2.76187         1.44314
   C       -2.22664         2.04623         1.31248
   C       -3.56422         2.47480         1.33553
   C       -4.62666         1.56504         1.24019
   C       -5.85831         2.18703         1.26394
   C       -5.74484         3.59753         1.36457
   S       -4.13187         4.13885         1.45582
   C       -7.04614         4.14653         1.36748
   C       -7.98258         3.09189         1.27055
   C       -7.26699         1.82855         1.20825
   C       -7.80633         0.57909         1.12393
   C       -7.00770        -0.58392         1.08370
   N       -6.36376        -1.53181         1.05662
   C       -9.20082         0.36588         1.07931
   N      -10.33270         0.18665         1.04391
   C       -9.29503         3.53673         1.25594
   C       -9.37381         4.92408         1.33657
   S       -7.79279         5.68340         1.43738
   C      -10.55541         5.70707         1.32613
   C      -10.49681         7.11886         1.38207
   C      -11.67659         7.94170         1.33040
   N      -11.55589         9.27241         1.37934
   C      -10.36897         9.82116         1.47569
   C       -9.19476         9.00227         1.52748
   N       -9.29461         7.69588         1.47887
   C       -7.91180         9.59459         1.63468
   N       -6.88841        10.10055         1.72286
   C      -10.26238        11.23305         1.53224
   N      -10.14622        12.37111         1.58263
   C      -12.97676         7.39659         1.22445
   C      -13.04242         5.98312         1.19898
   C      -11.85687         5.15630         1.24593
   N      -12.16706         3.86005         1.20088
   S      -13.75690         3.68957         1.11135
   N      -14.14886         5.24254         1.12286
   C      -14.11512         8.23542         1.12936
   C      -15.44153         7.82919         1.01697
   C      -16.30499         8.90739         0.90756
   C      -15.63530        10.15198         0.93444
   S      -13.94232         9.98317         1.10688
   C      -16.59733        11.17620         0.78442
   C      -17.87444        10.58245         0.66742
   C      -17.72949         9.13946         0.73606
   C      -18.72149         8.21054         0.61973
   C      -18.46920         6.82414         0.68977
   N      -18.26759         5.69750         0.75470
   C      -20.06381         8.59626         0.41887
   N      -21.14866         8.93128         0.25808
   C      -18.88568        11.50904         0.46535
   C      -18.40234        12.81043         0.41533
   S      -16.66256        12.87303         0.67048
   C      -19.12135        14.01101         0.22673
   C      -20.36472        14.18273        -0.30118
   C      -21.25223        13.32667        -1.06178
   C      -20.89239        12.33211        -1.93410
   C      -21.80780        11.63617        -2.75220
   N      -22.50823        11.04596        -3.44297
   C      -19.56184        11.95246        -2.19612
   N      -18.49454        11.62397        -2.46335
   C      -22.59153        13.89701        -0.96009
   C      -22.49611        15.18742        -0.37939
   C      -21.09109        15.45625        -0.02173
   O      -20.61771        16.46596         0.44392
   C      -23.59261        15.99486        -0.19561
   C      -24.84035        15.50018        -0.58980
   C      -24.92673        14.20104        -1.14765
   C      -23.81726        13.38745        -1.34260
   S      -26.56399        13.78445        -1.54753
   C      -27.10411        15.34083        -0.97602
   C      -26.11065        16.13251        -0.50568
  Br      -28.92681        15.77231        -1.05175
   H        0.42648         6.58288         2.39320
   H        3.18214         2.44348         1.77206
   H        2.88113         7.82471         2.93984
   H       -2.13063         0.97484         1.18279
   H       -4.46631         0.50445         1.15740
   H      -10.17244         2.92028         1.18827
   H      -15.72068         6.79154         1.01333
   H      -19.93109        11.26981         0.39473
   H      -18.65531        14.91722         0.60180
   H      -23.49203        16.97711         0.23856
   H      -23.92979        12.40129        -1.76176
   H      -26.26569        17.12166        -0.11529
*
