# ORCA input file
# SCF done       -217.265763948290          0.000453276792
! CAM-B3LYP def2-SVP def2/J RIJCOSX Grid4 TightSCF
%maxcore 5000
%tddft
    Mode sTDDFT
    Ethresh 5.0
    maxcore 5000
end

%pal
  nprocs 6
  end
* xyz 0 1
   C        7.05494        -3.12694         3.71472
   C        8.31577        -3.38777         3.25708
   F        9.34472        -2.62416         3.64546
   C        8.55099        -4.46102         2.37356
   F        9.79753        -4.69392         1.94232
   C        7.52128        -5.25869         1.96022
   C        6.21052        -5.01700         2.41587
   C        5.97081        -3.93132         3.30814
   C        4.66429        -3.67056         3.77894
   C        3.63014        -4.47337         3.37208
   C        3.87955        -5.55881         2.48760
   C        5.13016        -5.83220         2.01287
   C        2.62158        -6.28580         2.21620
   O        2.49606        -7.24301         1.48774
   C        1.59750        -5.62786         3.07467
   C        2.20865        -4.45702         3.69179
   C        1.55116        -3.47593         4.38183
   C        0.15536        -3.43848         4.59547
   N       -0.97118        -3.32989         4.78766
   C        2.18709        -2.34524         4.93822
   N        2.65438        -1.41154         5.41410
   C        0.39332        -6.13663         3.43704
   C       -0.31012        -7.26951         2.89659
   C       -1.10732        -8.01295         3.79126
   O       -1.18692        -7.59401         5.10469
   C       -2.43031        -6.97991         5.42228
   C       -1.75998        -9.17286         3.36333
   O       -2.35613       -10.06207         4.20345
   C       -1.82429       -10.24774         5.50354
   C       -1.77171        -9.47520         1.98329
   C       -1.03828        -8.68589         1.09844
   C       -0.28847        -7.62434         1.54480
   C       -2.51166       -10.63254         1.50155
   C       -3.78618       -10.95150         2.00154
   C       -4.43024       -12.20929         1.70651
   N       -5.59557       -12.52069         2.30867
   C       -6.14123       -11.66075         3.12241
   C       -5.56598       -10.35074         3.30335
   N       -4.43201       -10.03421         2.74457
   C       -6.23312        -9.37800         4.08995
   N       -6.76524        -8.61387         4.75697
   C       -7.32826       -12.00886         3.81569
   N       -8.27444       -12.25307         4.41277
   C       -3.87205       -13.12621         0.80285
   C       -2.65688       -12.75729         0.21294
   C       -1.97792       -11.52471         0.56174
   N       -0.80446       -11.41772        -0.07484
   S       -0.59056       -12.70797        -0.99418
   N       -1.93748       -13.48831        -0.64761
   C       -4.46786       -14.43674         0.54476
   C       -4.65100       -14.87927        -0.77231
   O       -4.42303       -14.01415        -1.82539
   C       -5.38389       -12.98137        -1.93315
   C       -5.09565       -16.18722        -1.00964
   O       -5.27446       -16.77641        -2.20725
   C       -4.86230       -16.16211        -3.41145
   C       -5.44967       -17.00006         0.09215
   C       -5.31100       -16.51299         1.39204
   C       -4.80482       -15.25749         1.61924
   C       -5.90659       -18.34447        -0.15295
   C       -6.82175       -19.03585         0.56300
   C       -6.88529       -20.52272         0.47700
   O       -6.37078       -21.22510        -0.35987
   C       -7.64905       -20.94168         1.67098
   C       -7.86511       -22.20210         2.14904
   C       -8.58834       -22.36640         3.35130
   C       -9.07454       -21.21582         4.03826
   C       -9.78189       -21.38695         5.24555
   C       -9.99766       -22.64015         5.74570
   C       -9.51861       -23.77730         5.06402
   C       -8.82957       -23.64486         3.89140
   F       -9.74333       -24.99348         5.57905
   F      -10.66741       -22.80110         6.89408
   C       -8.84637       -19.92355         3.51332
   C       -8.14716       -19.78845         2.34320
   C       -7.77220       -18.60488         1.57481
   C       -8.38276       -17.38261         1.64325
   C       -8.15310       -16.33114         0.73026
   N       -8.05629       -15.46327        -0.01449
   C       -9.38791       -17.07250         2.58441
   N      -10.20496       -16.79156         3.33911
   H        6.89234        -2.30089         4.38929
   H        7.71764        -6.07637         1.28453
   H        4.51488        -2.84731         4.45882
   H        5.29177        -6.66213         1.34184
   H       -0.08636        -5.69433         4.30202
   H       -3.27919        -7.61485         5.15281
   H       -2.53183        -6.01846         4.90881
   H       -2.41731        -6.81493         6.49791
   H       -0.73929       -10.12940         5.51182
   H       -2.08271       -11.27109         5.77949
   H       -2.26819        -9.56165         6.22726
   H       -1.05544        -8.93296         0.04963
   H        0.28357        -7.03768         0.84737
   H       -5.33387       -12.28965        -1.08578
   H       -6.39782       -13.39028        -1.99048
   H       -5.14685       -12.44580        -2.85108
   H       -3.83872       -15.79113        -3.34434
   H       -5.52909       -15.34443        -3.69202
   H       -4.92463       -16.94937        -4.16305
   H       -5.55720       -17.15518         2.22436
   H       -4.65142       -14.90207         2.62515
   H       -5.42170       -18.87985        -0.96183
   H       -7.48411       -23.06230         1.61996
   H      -10.15846       -20.52757         5.77792
   H       -8.46883       -24.52472         3.38211
   H       -9.21746       -19.06909         4.05664
*
