# ORCA input file
# SCF done       -155.219032360783          0.000543922108
! CAM-B3LYP def2-SVP def2/J RIJCOSX Grid4 TightSCF
%maxcore 5000
%tddft
    Mode sTDDFT
    Ethresh 5.0
    maxcore 5000
end

%pal
  nprocs 6
  end
* xyz 0 1
   C       -1.89926         1.25781        -1.78677
   C       -2.15556        -0.09082        -1.90821
   C       -1.16663        -1.06478        -2.14364
   N       -0.41411        -1.91197        -2.33623
   C       -3.41835        -0.70609        -1.81685
   N       -4.40020        -1.30249        -1.75833
   C       -0.57329         1.86885        -1.88107
   C       -0.70557         3.26568        -1.69328
   C        0.36476         4.12369        -1.72535
   C        1.63249         3.57736        -1.95710
   C        1.75534         2.18219        -2.14569
   C        0.67020         1.31328        -2.11106
   S        3.40814         1.71779        -2.42117
   C        3.90268         3.38384        -2.28023
   C        2.88598         4.24435        -2.03960
  Br        5.71603         3.83006        -2.46568
   C       -2.13203         3.59352        -1.47679
   O       -2.58895         4.70449        -1.28322
   C       -2.84980         2.30922        -1.54873
   C       -4.22018         2.16884        -1.41951
   C       -5.11288         3.21036        -1.20901
   C       -6.48062         3.01963        -1.11070
   C       -7.46128         4.01778        -0.92598
   C       -8.74159         3.54216        -0.88825
   C       -8.82919         2.14422        -1.03528
   S       -7.23534         1.44725        -1.22194
   C       -9.96428         1.34902        -1.05913
   C      -11.31343         1.75688        -0.95507
   C      -12.19886         0.72878        -1.05644
   C      -11.59884        -0.54647        -1.23014
   S       -9.85414        -0.37803        -1.25223
   C      -12.30292        -1.70760        -1.42752
   C      -11.83170        -3.02125        -1.58926
   S      -12.95287        -4.22307        -2.22698
   C      -11.75482        -5.46725        -2.16022
   C      -10.56010        -4.97678        -1.66463
   C      -10.59970        -3.61320        -1.31842
   O       -9.57775        -2.96781        -0.74259
   S       -9.12700        -6.00121        -1.40419
   N      -11.94847        -6.76110        -2.52119
   C      -13.03838        -7.35515        -3.07524
   S      -14.43213        -6.44812        -3.55481
   C      -15.16664        -7.91731        -4.11876
   N      -16.44193        -7.82304        -4.67592
   O      -16.96752        -8.84714        -5.07520
   O      -16.93686        -6.70739        -4.72319
   C      -14.38127        -9.02485        -3.93982
   C      -13.14611        -8.73066        -3.33454
   C      -12.13199        -9.69509        -2.99571
   C      -12.22866       -11.02289        -3.19731
   C      -11.20118       -11.94621        -2.81691
   C      -11.25313       -13.27842        -2.97759
   C      -12.41205       -14.01224        -3.57559
   C      -10.10080       -14.14998        -2.55503
   N      -10.55649       -15.16101        -1.62743
   C       -9.86685       -16.34212        -1.46862
   C       -9.90784       -17.10817        -0.38518
   H        0.23017         5.18385        -1.57791
   H        0.81872         0.25713        -2.26120
   H        3.01159         5.30560        -1.92500
   H       -4.64145         1.17367        -1.49652
   H       -4.73479         4.21896        -1.12702
   H       -7.19245         5.05472        -0.83118
   H       -9.61246         4.15937        -0.75872
   H      -11.59164         2.78576        -0.81579
   H      -13.26796         0.83941        -1.01140
   H      -13.37758        -1.59896        -1.51110
   H       -8.84046        -3.58191        -0.59264
   H       -8.39821        -5.50695        -2.40983
   H      -11.14458        -7.36159        -2.35301
   H      -14.70549       -10.00327        -4.24113
   H      -11.23057        -9.31781        -2.52818
   H      -13.11138       -11.43164        -3.66234
   H      -10.31716       -11.51044        -2.36664
   H      -13.36243       -13.61988        -3.22243
   H      -12.35190       -15.06571        -3.31476
   H      -12.39211       -13.92469        -4.66245
   H       -9.29178       -13.53129        -2.13498
   H       -9.70484       -14.66764        -3.43656
   H      -10.95222       -14.79088        -0.77394
   H       -9.31454       -16.64794        -2.34784
   H      -10.45380       -16.81550         0.49549
   H       -9.41061       -18.05852        -0.35602
*
