# ORCA input file
# SCF done       -173.905589212751          0.000721683850
! CAM-B3LYP def2-SVP def2/J RIJCOSX Grid4 TightSCF
%maxcore 5000
%tddft
    Mode sTDDFT
    Ethresh 5.0
    maxcore 5000
end

%pal
  nprocs 6
  end
* xyz 0 1
   C      -16.69451        -9.90148         5.70434
   C      -15.74532       -10.44222         4.86830
   C      -15.31423       -11.78242         4.92424
   N      -14.92234       -12.86226         4.91347
   C      -15.07090        -9.76051         3.83599
   N      -14.47431        -9.28976         2.97379
   C      -17.39763       -10.63041         6.75852
   C      -18.31656        -9.75190         7.38199
   C      -19.13100       -10.14136         8.41610
   C      -19.03361       -11.46448         8.86079
   C      -18.11170       -12.33455         8.23416
   C      -17.28855       -11.93974         7.18582
   S      -18.15032       -13.92241         8.93989
   C      -19.38831       -13.40146        10.05184
   C      -19.75516       -12.10662         9.90439
  Br      -20.07986       -14.61695        11.30258
   C      -18.22541        -8.42071         6.74695
   O      -18.87996        -7.43952         7.04191
   C      -17.18504        -8.54610         5.70613
   C      -16.75345        -7.51087         4.90273
   C      -17.24782        -6.20984         4.94977
   C      -16.75841        -5.18478         4.16590
   C      -17.19027        -3.83684         4.19025
   C      -16.50604        -3.01805         3.34373
   C      -15.50086        -3.68002         2.60188
   S      -15.46373        -5.38174         3.00570
   C      -14.61456        -3.12517         1.69762
   C      -14.49185        -1.75458         1.35368
   C      -13.48342        -1.49925         0.48161
   C      -12.75936        -2.65587         0.07890
   S      -13.43019        -4.08431         0.84419
   C      -11.67722        -2.68337        -0.75340
   C      -11.00249        -3.86419        -1.13506
   O      -11.49095        -5.08742        -0.75658
   C      -10.63448        -5.98226        -1.29530
   C       -9.62424        -5.24256        -1.98454
   N       -9.91471        -3.91763        -1.85308
   C       -8.57558        -5.86950        -2.64180
   C       -8.60591        -7.25228        -2.59219
   C       -9.64626        -7.96676        -1.92443
   C      -10.68590        -7.36017        -1.24468
   O       -9.40378        -9.28283        -2.09256
   C       -8.24845        -9.33567        -2.82666
   N       -7.75266        -8.17668        -3.12962
   C       -7.69540       -10.59649        -3.22022
   C       -8.34663       -11.76277        -3.10515
   C       -7.77912       -13.02017        -3.56016
   N       -6.47341       -13.05980        -3.83911
   C       -5.98213       -14.21530        -4.24505
   C       -6.77062       -15.34340        -4.40922
   C       -8.13488       -15.20232        -4.12295
   N       -8.61890       -14.04020        -3.68085
   C       -9.05435       -16.30183        -4.32863
   C      -10.38076       -16.16758        -4.14401
   C      -11.34398       -17.18964        -4.38660
   S      -13.03490       -16.83324        -4.11637
   C      -13.56665       -18.41676        -4.62361
   C      -12.46880       -19.16810        -4.97591
   C      -11.22907       -18.48449        -4.84353
   C      -10.15327       -19.39792        -5.25637
   O       -8.95751       -19.24782        -5.30902
   N      -10.81211       -20.56659        -5.60823
   C      -12.19435       -20.52435        -5.47485
   O      -12.92905       -21.44307        -5.73575
   C      -14.97420       -18.70374        -4.61384
   C      -15.51491       -19.86332        -4.98498
   H      -19.82104        -9.44736         8.86992
   H      -16.60210       -12.64214         6.74390
   H      -20.50311       -11.62248        10.50541
   H      -15.96315        -7.70620         4.18826
   H      -18.04328        -5.97916         5.64384
   H      -17.98683        -3.51854         4.83884
   H      -16.69627        -1.96563         3.23506
   H      -15.13873        -1.00279         1.76823
   H      -13.22407        -0.52429         0.10953
   H      -11.28010        -1.76518        -1.15599
   H       -7.80405        -5.32346        -3.15398
   H      -11.45846        -7.90486        -0.73034
   H       -6.71097       -10.55644        -3.66089
   H       -9.34830       -11.81625        -2.70461
   H       -4.91884       -14.22909        -4.45030
   H       -6.36580       -16.28192        -4.74996
   H       -8.62799       -17.23426        -4.66813
   H      -10.76233       -15.21499        -3.80138
   H      -10.32420       -21.38810        -5.93615
   H      -15.59780       -17.88675        -4.27347
   H      -14.91380       -20.68970        -5.32301
   H      -16.58043       -20.01042        -4.95133
*
