# ORCA input file
# SCF done       -193.798932686317          0.000744287256
! CAM-B3LYP def2-SVP def2/J RIJCOSX Grid4 TightSCF
%maxcore 5000
%tddft
    Mode sTDDFT
    Ethresh 5.0
    maxcore 5000
end

%pal
  nprocs 6
  end
* xyz 0 1
   C       -3.84087         1.50322         3.22822
   C       -5.04741         1.79620         3.80630
   C       -5.44860         1.34192         5.07937
   N       -5.83405         1.02904         6.11456
   C       -5.99723         2.69606         3.28477
   N       -6.79581         3.45031         2.94718
   C       -2.78962         0.69111         3.82000
   C       -1.62562         0.78130         3.01529
   C       -0.45544         0.13435         3.32953
   C       -0.43655        -0.65392         4.48450
   C       -1.60514        -0.74116         5.28143
   C       -2.78448        -0.07851         4.96962
   S       -1.36086        -1.76739         6.66154
   C        0.28178        -2.06388         6.15722
   C        0.63204        -1.42672         5.01407
  Br        1.37607        -3.18503         7.18529
   C       -1.89429         1.65455         1.86201
   O       -1.09096         2.12520         1.09309
   C       -3.35580         1.97052         1.93955
   C       -4.05839         2.63047         0.98612
   C       -3.59217         2.86422        -0.33917
   O       -4.10656         3.91778        -1.03098
   C       -2.74514         2.16971        -1.17912
   C       -1.94151         0.94227        -1.31597
   O       -1.77611         0.01867        -0.56505
   N       -1.43202         1.03238        -2.60556
   C       -1.85342         2.13832        -3.34500
   O       -1.54034         2.37366        -4.48031
   C       -2.72916         2.85883        -2.41299
   C       -3.57980         3.94347        -2.28477
   C       -3.93393         4.98219        -3.18605
   C       -4.87190         5.89800        -2.84113
   C       -5.29581         7.02199        -3.60698
   S       -4.58100         7.12981        -5.22959
   C       -5.90755         7.81668        -6.15910
   C       -6.14823         7.52097        -7.46457
   S       -7.49979         8.38979        -8.07690
   C       -7.75787         9.14330        -6.55479
   C       -6.83468         8.75250        -5.63620
   S       -6.77933         9.36158        -3.98702
   C       -6.17788         7.95251        -3.11356
   C       -6.70220         7.94011        -1.77456
   O       -6.03022         7.34318        -0.75707
   C       -7.87245         8.47312        -1.26407
   C       -9.11826         9.18637        -1.59445
   O       -9.53761         9.61324        -2.63622
   N       -9.78537         9.26260        -0.37406
   C       -9.13925         8.66666         0.70596
   O       -9.55524         8.61845         1.83160
   C       -7.90130         8.14537         0.11381
   C       -6.74542         7.44773         0.39373
   C       -6.25807         6.88554         1.60264
   C       -5.02591         6.33297         1.71160
   C       -4.49103         5.72276         2.87698
   C       -4.85939         5.82245         4.18122
   C       -5.74275         6.70404         4.92135
   C       -5.98488         8.02836         4.67273
   C       -6.72902         8.86122         5.53629
   N       -7.31222         9.57719         6.21660
   C       -5.44502         8.73419         3.57925
   N       -5.01114         9.34778         2.71196
   C       -6.12495         5.99776         6.13869
   C       -5.30247         4.85003         6.28163
   C       -4.41345         4.74947         5.11701
   O       -3.54738         3.92687         4.90376
   C       -5.41080         3.99446         7.35275
   C       -6.38947         4.27279         8.31103
   C       -7.21765         5.41103         8.14904
   C       -7.09839         6.28516         7.07534
   S       -8.36645         5.55298         9.44127
   C       -7.72889         4.10369        10.17412
   C       -6.70719         3.54027         9.48677
  Br       -8.47241         3.47611        11.77455
   H        0.41340         0.22571         2.69739
   H       -3.64767        -0.17731         5.60651
   H        1.60408        -1.49853         4.56141
   H       -5.05192         3.00785         1.19150
   H       -0.81895         0.32874        -2.99275
   H       -3.40940         4.99936        -4.12877
   H       -5.34027         5.76558        -1.87895
   H       -5.59593         6.85666        -8.09717
   H       -8.56193         9.83622        -6.41404
   H      -10.68263         9.71823        -0.28253
   H       -6.95632         6.89871         2.42542
   H       -4.40617         6.28698         0.82558
   H       -3.69402         5.00475         2.70012
   H       -4.77248         3.13053         7.44629
   H       -7.75687         7.13329         6.98480
   H       -6.20154         2.64133         9.78787
*
