# ORCA input file
# SCF done       -206.023389662133          0.000956497658
! CAM-B3LYP def2-SVP def2/J RIJCOSX Grid4 TightSCF
%maxcore 5000
%tddft
    Mode sTDDFT
    Ethresh 5.0
    maxcore 5000
end

%pal
  nprocs 6
  end
* xyz 0 1
   C      -12.59622        -7.08367        -7.14489
   C      -13.46244        -6.21830        -7.75318
   F      -14.22142        -6.63289        -8.77673
   C      -13.56748        -4.88391        -7.31528
   F      -14.42546        -4.05538        -7.92846
   C      -12.80286        -4.43170        -6.27621
   C      -11.89844        -5.29774        -5.63273
   C      -11.79362        -6.64817        -6.07222
   C      -10.88918        -7.53507        -5.44170
   C      -10.11127        -7.08312        -4.41028
   C      -10.21992        -5.72991        -3.98074
   C      -11.08653        -4.85308        -4.56471
   C       -9.26235        -5.50246        -2.88217
   O       -9.08823        -4.45695        -2.27267
   C       -8.57282        -6.76967        -2.67375
   C       -9.09154        -7.74769        -3.59724
   C       -8.70851        -9.06087        -3.72783
   C       -9.26704        -9.95346        -4.66498
   N       -9.67810       -10.72860        -5.40607
   C       -7.71397        -9.71130        -2.96968
   N       -6.91938       -10.32496        -2.41079
   C       -7.56301        -6.96667        -1.75242
   C       -6.95794        -6.06900        -0.88661
   C       -5.85623        -6.48910        -0.08992
   C       -5.27603        -5.45065         0.66895
   N       -4.21294        -5.67057         1.45323
   C       -3.76676        -6.90422         1.47428
   C       -4.35045        -7.95859         0.72909
   C       -3.80132        -9.34863         0.79631
   C       -4.85144       -10.40857         0.48337
   N       -5.38763        -7.73940        -0.05299
   C       -5.95007        -4.20870         0.50237
   S       -7.28217        -4.37430        -0.61201
   C       -5.53291        -3.05184         1.13637
   C       -6.12275        -1.79929         1.15461
   C       -5.56936        -0.67274         1.79728
   C       -6.35125         0.44580         1.73054
   C       -7.56631         0.24353         1.05119
   S       -7.66906        -1.39488         0.45008
   C       -8.60296         1.16325         0.90680
   C       -8.60183         2.50522         1.32652
   C       -9.79808         3.12852         1.11299
   C      -10.79205         2.30569         0.53732
   S      -10.14501         0.72007         0.20818
   C      -12.09926         2.74060         0.36360
   C      -13.20457         2.02978        -0.06855
   C      -13.29153         0.69880        -0.54748
   C      -14.62378         0.25871        -0.77791
   N      -14.85883        -0.95752        -1.29530
   C      -13.80610        -1.70908        -1.51721
   C      -12.48296        -1.30145        -1.24585
   C      -11.29987        -2.16766        -1.52179
   C      -10.43713        -1.56600        -2.63286
   N      -12.24916        -0.08674        -0.78154
   C      -15.59627         1.23351        -0.46476
   S      -14.80261         2.71521         0.00654
   C      -16.98893         1.17182        -0.50640
   C      -17.80568         0.06635        -0.54220
   C      -19.19959         0.22172        -1.02539
   O      -19.78568         1.26015        -1.23737
   C      -19.69655        -1.15598        -1.22922
   C      -20.89073        -1.57223        -1.74045
   C      -21.14341        -2.95867        -1.85483
   C      -20.14573        -3.88672        -1.43909
   C      -20.40330        -5.26700        -1.55633
   C      -21.59600        -5.70560        -2.05938
   C      -22.58163        -4.78719        -2.46977
   C      -22.36124        -3.44177        -2.37052
   F      -23.74281        -5.24501        -2.96023
   F      -21.83926        -7.01977        -2.16629
   C      -18.91931        -3.42408        -0.90730
   C      -18.70013        -2.07788        -0.79877
   C      -17.57520        -1.32094        -0.25187
   C      -16.61193        -1.83955         0.58203
   C      -15.74795        -1.05227         1.36328
   N      -15.04778        -0.44834         2.04571
   C      -16.42221        -3.21430         0.81185
   N      -16.18986        -4.32226         1.00691
   H      -12.52812        -8.10267        -7.49242
   H      -12.89501        -3.40603        -5.95450
   H      -10.83431        -8.55059        -5.79823
   H      -11.14672        -3.83032        -4.22738
   H       -7.12349        -7.95499        -1.68244
   H       -2.90965        -7.08734         2.10830
   H       -3.36783        -9.51319         1.78600
   H       -2.98656        -9.42040         0.06826
   H       -5.65890       -10.36449         1.21010
   H       -4.40450       -11.39832         0.51958
   H       -5.27363       -10.24787        -0.50367
   H       -4.61777        -3.15985         1.70742
   H       -4.61530        -0.72031         2.29118
   H       -6.09083         1.39026         2.17204
   H       -7.74625         2.98177         1.76979
   H      -10.00158         4.15223         1.37408
   H      -12.28720         3.76367         0.66738
   H      -14.00751        -2.68636        -1.93602
   H      -11.62610        -3.17117        -1.79579
   H      -10.69133        -2.23771        -0.61874
   H      -11.01140        -1.45448        -3.55143
   H       -9.58776        -2.21740        -2.81396
   H      -10.07623        -0.58649        -2.33323
   H      -17.51111         2.12224        -0.56660
   H      -21.63554        -0.85557        -2.05124
   H      -19.66031        -5.98391        -1.24366
   H      -23.12635        -2.75138        -2.68909
   H      -18.18061        -4.14832        -0.60332
*
