# ORCA input file
# SCF done       -204.958555274724          0.000527229726
! CAM-B3LYP def2-SVP def2/J RIJCOSX Grid4 TightSCF
%maxcore 5000
%tddft
    Mode sTDDFT
    Ethresh 5.0
    maxcore 5000
end

%pal
  nprocs 6
  end
* xyz 0 1
   C        0.77106         0.22939        -1.93993
   C        2.09078         0.57934        -2.00222
   F        2.45571         1.86050        -1.85735
   C        3.08233        -0.39813        -2.21757
   F        4.36935        -0.02739        -2.27276
   C        2.74030        -1.71286        -2.36823
   C        1.38924        -2.10481        -2.30749
   C        0.38556        -1.11781        -2.08983
   C       -0.97753        -1.48804        -2.01992
   C       -1.32576        -2.80511        -2.16146
   C       -0.31692        -3.78125        -2.37849
   C        1.00633        -3.45706        -2.45045
   C       -0.93793        -5.11692        -2.46017
   O       -0.32161        -6.16973        -2.52539
   C       -2.38244        -4.89943        -2.33123
   C       -2.62105        -3.48198        -2.13296
   C       -3.82653        -2.83984        -1.99370
   C       -5.10214        -3.43845        -2.02697
   N       -6.17622        -3.84707        -2.05019
   C       -3.96176        -1.44839        -1.80487
   N       -4.14952        -0.32728        -1.64266
   C       -3.39960        -5.83067        -2.28935
   N       -3.42891        -7.11828        -2.60123
   C       -2.44406        -7.90844        -3.31931
   C       -2.45791        -7.52120        -4.79760
   C       -1.60123        -8.47519        -5.62855
   N       -1.75807        -8.11327        -7.02526
   S       -3.02763        -9.09789        -7.63448
   N       -2.54603       -10.47201        -6.71797
   C       -2.06581        -9.97094        -5.44193
   C       -3.20255       -10.07388        -4.42483
   C       -2.82344        -9.40105        -3.10899
   N       -3.93853        -9.44447        -2.17757
   S       -4.87017        -8.06607        -2.43000
   C       -3.81218       -10.03423        -0.93135
   C       -4.57706        -9.75721         0.12788
   C       -4.48693       -10.40932         1.41602
   C       -4.22976       -11.69679         1.66657
   C       -4.03067       -12.75099         0.62011
   C       -4.13564       -12.19780         3.09110
   N       -2.85203       -12.81154         3.34783
   C       -1.75545       -12.12191         3.70210
   C       -0.48908       -12.62365         3.64086
   C        0.64611       -11.92974         4.08246
   C        1.93029       -12.40593         3.98286
   C        3.11960       -11.78360         4.42353
   C        4.25262       -12.50418         4.18395
   C        4.02106       -13.73373         3.53066
   S        2.31806       -13.95646         3.23928
   C        4.95547       -14.67914         3.13557
   C        6.35038       -14.65103         3.31244
   C        6.99182       -15.74457         2.79968
   C        6.13550       -16.68107         2.18726
   S        4.47975       -16.14287         2.29777
   C        6.50606       -17.87372         1.58524
   C        5.60960       -18.71933         0.95458
   C        5.85622       -19.93796         0.34572
   C        4.89754       -20.44304        -0.65442
   O        3.79205       -20.00125        -0.90099
   C        5.58316       -21.56709        -1.32729
   C        5.16645       -22.32334        -2.38211
   C        6.01704       -23.33526        -2.88470
   C        7.29005       -23.53703        -2.27915
   C        8.13594       -24.54150        -2.78729
   C        7.71762       -25.30029        -3.84464
   C        6.46956       -25.11862        -4.45295
   C        5.63653       -24.14608        -3.97233
   F        8.52641       -26.26348        -4.33176
   C        7.69174       -22.74024        -1.17966
   C        6.84835       -21.77337        -0.70739
   C        6.97170       -20.83382         0.41096
   C        7.89338       -20.95252         1.42981
   C        7.82922       -20.25504         2.65003
   N        7.80836       -19.75838         3.68654
   C        8.95536       -21.87467         1.42534
   N        9.85687       -22.58663         1.47021
   H        0.02436         0.99025        -1.77443
   H        3.51152        -2.44925        -2.53169
   H       -1.70925        -0.71571        -1.84959
   H        1.75069        -4.22188        -2.61228
   H       -4.36473        -5.47710        -1.94712
   H       -1.45486        -7.69421        -2.90221
   H       -2.06155        -6.51174        -4.91242
   H       -3.47605        -7.52491        -5.19030
   H       -0.55327        -8.36260        -5.33604
   H       -0.90678        -8.23673        -7.56437
   H       -1.84791       -11.01431        -7.21678
   H       -1.22382       -10.58444        -5.10546
   H       -3.42291       -11.12673        -4.24558
   H       -4.10059        -9.61903        -4.84255
   H       -1.97869        -9.93598        -2.66374
   H       -3.03013       -10.77639        -0.89003
   H       -5.29637        -8.95123         0.05663
   H       -4.69817        -9.75805         2.25612
   H       -4.52148       -12.46448        -0.30683
   H       -4.44945       -13.69802         0.95890
   H       -2.97171       -12.90871         0.41085
   H       -4.91095       -12.94908         3.27648
   H       -4.27388       -11.37481         3.79535
   H       -2.69875       -13.71591         2.92394
   H       -1.93441       -11.12603         4.08475
   H       -0.33685       -13.61391         3.23128
   H        0.51045       -10.95370         4.52988
   H        3.10246       -10.82314         4.90833
   H        5.24224       -12.18372         4.45491
   H        6.84823       -13.83773         3.80944
   H        8.05387       -15.90571         2.84818
   H        7.55974       -18.11015         1.59950
   H        4.59293       -18.35642         0.82851
   H        4.19886       -22.15398        -2.83072
   H        9.10352       -24.71176        -2.34140
   H        6.19287       -25.74754        -5.28434
   H        4.66888       -23.98639        -4.42439
   H        8.66319       -22.91483        -0.74536
*
