# ORCA input file
# SCF done       -152.971307955396          0.000843009130
! CAM-B3LYP def2-SVP def2/J RIJCOSX Grid4 TightSCF
%maxcore 5000
%tddft
    Mode sTDDFT
    Ethresh 5.0
    maxcore 5000
end

%pal
  nprocs 6
  end
* xyz 0 1
   C       11.36435        -6.97544        -0.48827
   C       11.27857        -8.27374        -0.17294
   C       12.11580        -9.01867         0.72509
   C       11.78597       -10.32161         0.84897
   C       10.66445       -10.72065         0.06583
   S       10.04648        -9.35400        -0.84542
   C       10.09796       -11.96670        -0.00193
   C       10.48546       -13.14793         0.68369
   C        9.70882       -14.22901         0.42575
   C        8.64811       -13.98033        -0.48790
   S        8.69765       -12.29140        -1.01142
   C        7.70451       -14.85905        -0.91780
   N        6.72919       -14.51069        -1.80107
   C        5.73960       -15.30181        -2.26706
   S        5.65338       -16.97857        -1.81679
   C        4.28901       -17.17884        -2.87497
   N        3.71361       -18.44120        -2.94597
   O        2.75470       -18.59341        -3.68644
   O        4.21852       -19.31559        -2.25379
   C        3.94155       -16.02406        -3.52848
   C        4.74459       -14.92623        -3.18191
   C        4.52298       -13.61541        -3.75480
   C        4.84852       -12.42164        -3.23664
   C        4.62221       -11.14292        -3.88086
   C        3.58368       -10.77022        -4.63621
   C        2.37851       -11.61331        -4.91817
   C        3.54063        -9.39590        -5.24986
   N        3.37633        -9.51728        -6.68156
   C        3.00851        -8.50211        -7.50441
   C        2.66677        -7.25443        -7.11503
   C        2.19210        -6.19604        -7.94958
   S        2.23436        -4.58919        -7.27790
   C        1.54627        -3.90099        -8.72722
   C        1.30534        -4.88230        -9.66839
   C        1.66640        -6.17384        -9.22923
   C        1.44523        -7.38380       -10.07892
   C        2.71398        -7.89496       -10.76541
   O        2.73857        -8.98525       -11.28065
   C        3.90775        -6.97915       -10.75195
   C        0.38558        -7.10267       -11.15769
   C        0.72718        -5.83427       -11.92651
   C        0.68242        -4.61763       -11.00284
   C        1.32017        -2.49606        -8.76932
   S        0.47995        -1.69933       -10.08745
   C        0.64962        -0.17194        -9.36070
   C        1.31401        -0.24461        -8.15421
   C        1.68753        -1.57500        -7.82657
   C        1.63196         0.86601        -7.28344
   O        2.20881         0.80036        -6.22695
   C        1.16999         2.25889        -7.80715
   F        1.72110         2.55386        -8.99959
   F       -0.16342         2.31320        -7.98109
   F        1.49677         3.24033        -6.97142
   H       12.12805        -6.35511        -0.05363
   H       10.68022        -6.51269        -1.17564
   H       12.92938        -8.53778         1.23857
   H       12.30532       -11.02239         1.47837
   H       11.32905       -13.15621         1.34987
   H        9.85211       -15.20361         0.85664
   H        7.69135       -15.87577        -0.55538
   H        6.78436       -13.57456        -2.18913
   H        3.11839       -15.98230        -4.21884
   H        4.02539       -13.64605        -4.71294
   H        5.33495       -12.34547        -2.27202
   H        5.39121       -10.40694        -3.67393
   H        2.21668       -12.33513        -4.12150
   H        2.48627       -12.15745        -5.85646
   H        1.49841       -10.98009        -5.00989
   H        4.44910        -8.82982        -4.99836
   H        2.67743        -8.84646        -4.85771
   H        3.84992       -10.29828        -7.10564
   H        2.98890        -8.79032        -8.54338
   H        2.78332        -6.97906        -6.07676
   H        1.07297        -8.20638        -9.45635
   H        3.62836        -5.97642       -11.06383
   H        4.68487        -7.37322       -11.40240
   H        4.29089        -6.91053        -9.73489
   H       -0.58830        -6.98645       -10.67757
   H        0.33602        -7.95795       -11.83334
   H        1.71778        -5.93464       -12.37297
   H        0.01513        -5.69048       -12.74074
   H       -0.35995        -4.32174       -10.84201
   H        1.18079        -3.77192       -11.48492
   H        0.25409         0.68824        -9.86230
   H        2.21411        -1.82043        -6.92270
*
