# ORCA input file
# SCF done       -190.036155089289          0.000794447852
! CAM-B3LYP def2-SVP def2/J RIJCOSX Grid4 TightSCF
%maxcore 5000
%tddft
    Mode sTDDFT
    Ethresh 5.0
    maxcore 5000
end

%pal
  nprocs 6
  end
* xyz 0 1
   C       -1.20003        -9.43030         6.68719
   C       -0.28156        -8.89841         5.82236
   F        0.89925        -8.46563         6.29403
   C       -0.51197        -8.77788         4.43740
   F        0.47104        -8.23728         3.69145
   C       -1.68837        -9.18350         3.82496
   C       -2.64692        -9.73760         4.71007
   C       -2.40262        -9.85731         6.11319
   N       -3.49310       -10.41605         6.66119
   N       -4.29952       -10.60351         5.65577
   N       -3.87233       -10.23036         4.48236
   C       -5.58910       -11.20189         5.81245
   C       -1.95146        -9.06859         2.41995
   C       -3.13152        -9.42688         1.79429
   C       -3.08316        -9.19783         0.42223
   C       -1.85113        -8.66221        -0.00103
   S       -0.76336        -8.43794         1.29138
   C       -1.89945        -8.46909        -1.40440
   C       -3.16842        -8.88162        -1.86363
   C       -3.95079        -9.35156        -0.73164
   C       -5.22786        -9.83309        -0.74341
   C       -5.98440        -9.93603        -1.92971
   N       -6.61031       -10.02286        -2.88688
   C       -5.87784       -10.25940         0.43369
   N       -6.41326       -10.60649         1.38693
   C       -3.31878        -8.73273        -3.23515
   C       -2.17594        -8.21348        -3.83224
   S       -0.89730        -7.90596        -2.66779
   C       -1.98904        -7.93706        -5.21257
   C       -0.77095        -7.42569        -5.71014
   C       -0.56390        -7.14004        -7.10044
   N        0.62762        -6.65507        -7.50228
   C        1.56570        -6.45373        -6.63426
   C        1.36076        -6.73586        -5.25900
   N        0.23036        -7.20215        -4.83619
   F        2.32365        -6.52979        -4.36570
   F        2.72670        -5.97479        -7.07053
   C       -1.56409        -7.34447        -8.07543
   C       -2.78912        -7.85899        -7.58548
   C       -2.99663        -8.15029        -6.18454
   N       -4.22321        -8.62461        -5.96270
   S       -5.02836        -8.70021        -7.34594
   N       -3.87582        -8.13795        -8.30658
   C       -1.34364        -7.04805        -9.44662
   C       -2.25639        -7.18980       -10.48540
   C       -1.71974        -6.80690       -11.70652
   C       -0.38192        -6.36982       -11.60340
   S        0.20430        -6.42924       -10.00012
   C        0.06686        -6.00557       -12.89765
   C       -0.98437        -6.21037       -13.81252
   C       -2.14001        -6.71863       -13.09571
   C       -3.35843        -7.04011       -13.62012
   C       -3.64073        -6.90388       -14.99544
   N       -3.87848        -6.79562       -16.11246
   C       -4.41732        -7.52733       -12.82541
   N       -5.28637        -7.92677       -12.19260
   C       -0.63746        -5.87993       -15.11928
   C        0.66604        -5.42697       -15.20920
   S        1.47443        -5.40899       -13.65058
   C        1.31942        -5.01272       -16.41661
   C        2.63051        -4.56547       -16.48423
   F        3.36767        -4.50190       -15.35839
   C        3.24875        -4.16641       -17.68601
   F        4.52496        -3.75308       -17.61876
   C        2.60797        -4.18486       -18.89574
   C        1.28102        -4.62863       -18.87659
   C        0.64489        -5.03554       -17.66312
   N       -0.60548        -5.39987       -17.97958
   N       -0.68451        -5.21841       -19.26777
   N        0.38241        -4.76805       -19.86380
   C       -1.89399        -5.50259       -19.97633
   H       -1.00463        -9.51410         7.74173
   H       -6.10667       -10.73606         6.64997
   H       -5.48299       -12.26900         6.01511
   H       -6.14247       -11.05728         4.88677
   H       -3.96438        -9.83268         2.33732
   H       -4.19641        -8.97884        -3.80364
   H       -3.25274        -7.55650       -10.32171
   H       -1.27594        -5.95399       -15.97954
   H        3.09799        -3.87630       -19.80233
   H       -2.61377        -5.89908       -19.26342
   H       -1.69783        -6.23033       -20.76357
   H       -2.27920        -4.59025       -20.43237
*
