# ORCA input file
# SCF done       -196.105259820401          0.000728912037
! CAM-B3LYP def2-SVP def2/J RIJCOSX Grid4 TightSCF
%maxcore 5000
%tddft
    Mode sTDDFT
    Ethresh 5.0
    maxcore 5000
end

%pal
  nprocs 6
  end
* xyz 0 1
   C       -5.36224         3.45973         2.11699
   C       -5.59171         4.18806         3.25014
   F       -5.59086         5.52704         3.20222
   C       -5.83142         3.54397         4.48079
   F       -6.05390         4.28385         5.57613
   C       -5.83775         2.17980         4.56129
   C       -5.60434         1.40127         3.41091
   C       -5.36217         2.05079         2.16588
   C       -5.12460         1.29128         0.99781
   C       -5.12808        -0.07780         1.07050
   C       -5.37339        -0.71443         2.31585
   C       -5.60562        -0.00972         3.46196
   C       -5.33396        -2.17906         2.14276
   O       -5.49895        -2.98212         3.04044
   C       -5.06984        -2.41410         0.70412
   C       -4.91497        -1.11109         0.06108
   C       -4.59371        -0.85536        -1.24663
   C       -4.33440        -1.78961        -2.27481
   N       -4.09211        -2.43133        -3.19688
   C       -4.45117         0.44453        -1.78057
   N       -4.31699         1.46545        -2.28820
   C       -4.99786        -3.57744        -0.01283
   C       -5.05973        -4.96572         0.30577
   C       -4.94061        -5.87669        -0.78862
   O       -4.83555        -5.33621        -2.01914
   C       -4.64774        -6.16905        -3.14075
   C       -4.93524        -7.23519        -0.53635
   C       -5.05390        -7.75092         0.75662
   C       -5.20165        -6.85386         1.84741
   C       -5.19466        -5.49303         1.59496
   O       -5.33306        -7.38870         3.07322
   C       -5.48965        -6.52695         4.17992
   C       -5.00962        -9.16672         0.96704
   N       -5.10118        -9.76288         2.11100
   C       -4.99599       -11.08443         1.99187
   C       -4.81062       -11.58118         0.68818
   S       -4.77684       -10.28044        -0.42828
   N       -4.68596       -12.90017         0.56718
   C       -4.76684       -13.48313         1.73215
   S       -5.01257       -12.39238         3.10600
   C       -4.64632       -14.90090         1.90136
   C       -4.69600       -15.50317         3.17967
   O       -4.89087       -14.67059         4.22815
   C       -5.00422       -15.20618         5.52684
   C       -4.52997       -16.86896         3.27751
   C       -4.37540       -17.68804         2.14974
   C       -4.32929       -17.07640         0.87150
   C       -4.45379       -15.70159         0.77590
   O       -4.11547       -17.88805        -0.19049
   C       -3.99912       -17.31536        -1.47522
   C       -4.18415       -19.08850         2.38176
   C       -4.38872       -20.19481         1.61893
   C       -3.72611       -21.46367         2.04093
   O       -3.17766       -21.67528         3.09781
   C       -3.84574       -22.37324         0.88443
   C       -3.31549       -23.61934         0.71404
   C       -3.54881       -24.30496        -0.49930
   C       -4.32774       -23.67977        -1.51588
   C       -4.55403       -24.36772        -2.72501
   C       -4.03399       -25.61720        -2.91491
   C       -3.26431       -26.23442        -1.90873
   C       -3.02617       -25.59313        -0.72550
   F       -2.76545       -27.45972        -2.12293
   F       -4.25183       -26.26934        -4.06481
   C       -4.86908       -22.39026        -1.30747
   C       -4.63567       -21.74700        -0.12129
   C       -5.08648       -20.45140         0.38049
   C       -6.12787       -19.72209        -0.12987
   C       -6.70219       -18.62300         0.53739
   N       -7.21288       -17.74095         1.06485
   C       -6.78255       -20.02247        -1.34071
   N       -7.32577       -20.20533        -2.33547
   H       -5.17959         3.96834         1.18321
   H       -6.02269         1.70203         5.51075
   H       -4.94755         1.81731         0.07435
   H       -5.78783        -0.52375         4.39365
   H       -4.85109        -3.43285        -1.07604
   H       -4.54384        -5.48681        -3.98257
   H       -5.50886        -6.82431        -3.30123
   H       -3.74023        -6.77141        -3.04366
   H       -4.83506        -7.93727        -1.34896
   H       -5.29253        -4.79655         2.40876
   H       -5.59547        -7.18385         5.04124
   H       -6.38264        -5.90347         4.08241
   H       -4.61596        -5.88329         4.31587
   H       -5.20442       -14.35486         6.17476
   H       -4.07516       -15.69095         5.84096
   H       -5.83279       -15.91684         5.59185
   H       -4.55358       -17.35158         4.24156
   H       -4.42030       -15.19687        -0.17457
   H       -3.81748       -18.15016        -2.15083
   H       -3.16018       -16.61637        -1.52601
   H       -4.92077       -16.80493        -1.76841
   H       -3.73574       -19.31987         3.34595
   H       -2.72639       -24.07698         1.49420
   H       -5.14388       -23.91157        -3.50467
   H       -2.43534       -26.07919         0.03502
   H       -5.45088       -21.94015        -2.09598
*
