# ORCA input file
# SCF done       -236.543482344120          0.000900633072
! CAM-B3LYP def2-SVP def2/J RIJCOSX Grid4 TightSCF
%maxcore 5000
%tddft
    Mode sTDDFT
    Ethresh 5.0
    maxcore 5000
end

%pal
  nprocs 6
  end
* xyz 0 1
   C        0.17050        -2.52692         9.68607
   C        0.38613        -3.04296        10.93337
   F        1.03323        -2.32210        11.85709
   C       -0.06674        -4.33666        11.26303
   F        0.16066        -4.81717        12.49193
   C       -0.73017        -5.09640        10.34043
   C       -0.96587        -4.59313         9.04635
   C       -0.50802        -3.28556         8.71138
   C       -0.72851        -2.76054         7.41692
   C       -1.38163        -3.52186         6.48405
   C       -1.83166        -4.82773         6.82783
   C       -1.64043        -5.35980         8.07051
   C       -2.47587        -5.43844         5.65487
   O       -2.99436        -6.54025         5.60503
   C       -2.35199        -4.46410         4.56349
   C       -1.73680        -3.25909         5.09093
   C       -1.54686        -2.07002         4.43770
   C       -1.94306        -1.78923         3.11246
   N       -2.24681        -1.48349         2.04816
   C       -0.94220        -0.93715         5.02355
   N       -0.45654         0.01582         5.43902
   C       -2.67347        -4.69690         3.25068
   C       -3.23099        -5.83228         2.64172
   C       -3.37880        -5.91981         1.24963
   C       -3.92562        -7.12214         0.85144
   C       -4.22830        -7.96430         1.95282
   S       -3.80927        -7.28416         3.45710
   C       -4.76398        -9.17091         1.45202
   C       -4.79794        -9.10070         0.04027
   C       -4.27729        -7.81086        -0.38094
   C       -4.13703        -7.35569        -1.65852
   C       -4.51234        -8.13104        -2.77669
   N       -4.81322        -8.75729        -3.68859
   C       -3.59973        -6.08306        -1.94834
   N       -3.15808        -5.05299        -2.18870
   C       -5.28578       -10.25886        -0.54441
   C       -5.63329       -11.21360         0.40708
   S       -5.36024       -10.65712         2.05081
   C       -6.12728       -12.51889         0.15859
   C       -6.48263       -13.37889         1.22353
   C       -6.94284       -14.72485         1.00625
   N       -7.26328       -15.48978         2.05501
   C       -7.15965       -15.01361         3.27218
   C       -6.70024       -13.67421         3.48848
   N       -6.37943       -12.91116         2.47178
   C       -6.58796       -13.15729         4.80332
   N       -6.50693       -12.76393         5.87566
   C       -7.50594       -15.83973         4.37027
   N       -7.77625       -16.48382         5.27759
   C       -7.05753       -15.28733        -0.28587
   C       -6.72972       -14.42147        -1.35606
   C       -6.28023       -13.06405        -1.13856
   N       -6.02989       -12.44477        -2.29284
   S       -6.32529       -13.43965        -3.51256
   N       -6.78194       -14.71383        -2.65615
   C       -7.45466       -16.63661        -0.46096
   C       -7.53769       -17.33226        -1.66391
   C       -7.92372       -18.64965        -1.47383
   C       -8.15146       -18.96288        -0.11423
   S       -7.87356       -17.63247         0.92349
   C       -8.52772       -20.32145        -0.02874
   C       -8.52777       -20.87392        -1.33039
   C       -8.16021       -19.83702        -2.27873
   C       -8.07630       -19.95970        -3.63450
   C       -8.35186       -21.18582        -4.27635
   N       -8.57378       -22.19233        -4.77884
   C       -7.70485       -18.88253        -4.46674
   N       -7.39215       -18.01082        -5.14236
   C       -8.88818       -22.21193        -1.35082
   C       -9.17887       -22.69693        -0.08020
   S       -8.96283       -21.46146         1.15605
   C       -9.53845       -24.00005         0.31851
   C       -9.98056       -25.04954        -0.43146
   C       -9.85830       -26.42123         0.14424
   O       -9.61881       -26.69836         1.29582
   C      -10.03091       -27.33760        -0.99844
   C       -9.87894       -28.69358        -1.04072
   C      -10.05677       -29.36534        -2.27081
   C      -10.38388       -28.61427        -3.43750
   C      -10.54907       -29.29019        -4.66312
   C      -10.39938       -30.64726        -4.72687
   C      -10.07696       -31.38895        -3.57213
   C       -9.90933       -30.76266        -2.36894
   F       -9.93420       -32.71734        -3.66479
   F      -10.55742       -31.28812        -5.89156
   C      -10.54261       -27.21123        -3.36110
   C      -10.37643       -26.58335        -2.15596
   C      -10.49817       -25.17661        -1.77633
   C      -11.20868       -24.23764        -2.47873
   C      -11.50640       -22.95180        -1.98843
   N      -11.78245       -21.90257        -1.61249
   C      -11.80604       -24.48406        -3.73341
   N      -12.31353       -24.63705        -4.75073
   H        0.52343        -1.53491         9.45074
   H       -1.07043        -6.08453        10.60814
   H       -0.36641        -1.76961         7.19626
   H       -1.99444        -6.35257         8.30337
   H       -2.44305        -3.90950         2.54285
   H       -3.08029        -5.12295         0.59137
   H       -5.39364       -10.44035        -1.59797
   H       -7.31456       -16.86726        -2.60663
   H       -8.89481       -22.82949        -2.23017
   H       -9.37332       -24.23730         1.36582
   H       -9.62380       -29.24570        -0.14903
   H      -10.79897       -28.73833        -5.55580
   H       -9.66233       -31.34413        -1.49446
   H      -10.77834       -26.66593        -4.26106
*
