# ORCA input file
# SCF done       -269.306960431324          0.000578861686
! CAM-B3LYP def2-SVP def2/J RIJCOSX Grid4 TightSCF
%maxcore 5000
%tddft
    Mode sTDDFT
    Ethresh 5.0
    maxcore 5000
end

%pal
  nprocs 6
  end
* xyz 0 1
   C       -4.00726         1.83407        -4.20433
   C       -3.28132         2.06609        -5.33895
   F       -3.50014         3.16854        -6.06416
   C       -2.29513         1.15011        -5.75963
   F       -1.59913         1.40326        -6.87396
   C       -2.04985         0.01399        -5.03999
   C       -2.78178        -0.25344        -3.86706
   C       -3.77740         0.67269        -3.43938
   C       -4.51940         0.42943        -2.26127
   C       -4.27702        -0.70782        -1.53558
   C       -3.29190        -1.63469        -1.97893
   C       -2.55244        -1.42122        -3.10605
   C       -3.23665        -2.77574        -1.04502
   O       -2.41636        -3.66682        -1.03808
   C       -4.34723        -2.55262        -0.08300
   C       -4.85642        -1.20804        -0.29218
   C       -5.66505        -0.48334         0.54610
   C       -6.09750        -0.85028         1.83318
   N       -6.46624        -1.00503         2.91214
   C       -6.11939         0.82357         0.25488
   N       -6.52572         1.88022         0.06996
   C       -4.84038        -3.44507         0.82236
   C       -4.51456        -4.82797         0.96851
   C       -3.96838        -5.61052        -0.15400
   C       -4.62736        -5.63899        -1.38058
   C       -4.22546        -6.51785        -2.36440
   C       -3.13444        -7.35792        -2.15688
   C       -2.43591        -7.28728        -0.95351
   C       -2.86023        -6.43177         0.04164
   C       -2.79857        -8.36212        -3.20521
   O       -3.63162        -8.87746        -3.89888
   O       -1.49864        -8.68621        -3.32412
   C       -4.79272        -5.48142         2.14809
   C       -5.19182        -4.73498         3.33326
   C       -6.27189        -5.17359         4.10414
   C       -6.79622        -4.36117         5.08727
   C       -6.25113        -3.10091         5.31265
   C       -5.10204        -2.71039         4.63213
   C       -4.57152        -3.52590         3.65563
   C       -6.94096        -2.14296         6.23879
   O       -7.32203        -2.43791         7.33706
   O       -7.11854        -0.92679         5.71978
   C       -4.68374        -6.92813         2.25594
   C       -3.98599        -7.51877         3.32392
   C       -3.72956        -8.92996         3.37775
   N       -2.93836        -9.42382         4.35965
   C       -2.49319        -8.62603         5.26796
   C       -2.78691        -7.22901         5.24064
   N       -3.47940        -6.70919         4.28693
   F       -2.32228        -6.42210         6.18528
   F       -1.72258        -9.13857         6.22056
   C       -4.21864        -9.81140         2.39581
   C       -4.98281        -9.22863         1.36951
   C       -5.22430        -7.80773         1.30431
   N       -6.01505        -7.49229         0.27050
   S       -6.38543        -8.82831        -0.53130
   N       -5.59492        -9.87588         0.37139
   C       -3.91377       -11.22915         2.35793
   C       -3.63811       -11.76479         1.02217
   C       -4.21045       -12.96420         0.59712
   C       -3.97974       -13.42669        -0.68231
   C       -3.16584       -12.70717        -1.55282
   C       -2.57892       -11.51565        -1.13044
   C       -2.81951       -11.04921         0.14296
   C       -2.96506       -13.21720        -2.93144
   O       -3.54560       -14.16584        -3.39563
   O       -2.06165       -12.51520        -3.62331
   C       -3.91873       -12.03625         3.46602
   C       -4.44011       -11.56852         4.76217
   C       -5.65400       -10.88410         4.83538
   C       -6.17304       -10.49843         6.05480
   C       -5.48483       -10.79326         7.22860
   C       -4.26101       -11.45715         7.16164
   C       -3.74437       -11.83862         5.94267
   C       -6.02074       -10.43101         8.56158
   O       -5.52816       -10.77555         9.60587
   O       -7.12276        -9.67244         8.50039
   C       -3.35561       -13.35422         3.40056
   C       -3.56114       -14.38451         4.26190
   C       -2.53252       -15.45291         4.42461
   O       -1.63949       -15.72414         3.65924
   C       -2.80700       -16.03581         5.75556
   C       -2.07328       -16.94600         6.46057
   C       -2.50948       -17.33018         7.74863
   C       -3.69989       -16.75864         8.28729
   C       -4.11963       -17.13929         9.57772
   C       -3.39556       -18.04789        10.29762
   C       -2.22065       -18.61490         9.76276
   C       -1.78580       -18.26414         8.51536
   F       -1.53127       -19.50233        10.49033
   F       -3.79636       -18.41065        11.52159
   C       -4.44669       -15.82686         7.53079
   C       -4.00843       -15.47674         6.28219
   C       -4.57327       -14.58300         5.28060
   C       -5.88048       -14.19373         5.17632
   C       -6.37741       -13.60602         3.99481
   N       -6.79898       -13.20342         3.00600
   C       -6.85033       -14.41324         6.17338
   N       -7.66072       -14.54869         6.97422
   H       -4.75602         2.54657        -3.89519
   H       -1.29192        -0.67645        -5.37542
   H       -5.26606         1.14894        -1.96743
   H       -1.80495        -2.13614        -3.41448
   H       -5.61519        -3.08560         1.49069
   H       -5.48313        -5.00071        -1.54105
   H       -4.75438        -6.57893        -3.30332
   H       -1.58670        -7.93213        -0.76762
   H       -2.32640        -6.38887         0.97945
   H       -0.93020        -8.14205        -2.76239
   H       -6.73046        -6.12559         3.88030
   H       -7.65598        -4.67034         5.66167
   H       -4.63022        -1.76653         4.86364
   H       -3.67419        -3.23332         3.13096
   H       -6.85560        -0.87690         4.77776
   H       -4.87902       -13.49490         1.25768
   H       -4.43013       -14.34265        -1.03294
   H       -1.94854       -10.96964        -1.81441
   H       -2.36466       -10.12834         0.48101
   H       -1.99465       -12.85511        -4.52899
   H       -6.20464       -10.68449         3.92786
   H       -7.11888        -9.98270         6.10801
   H       -3.73211       -11.66221         8.07987
   H       -2.78306       -12.32783         5.89593
   H       -7.43644        -9.47183         9.39636
   H       -2.58232       -13.51533         2.65655
   H       -1.17057       -17.36585         6.04357
   H       -5.01690       -16.71587        10.00118
   H       -0.88416       -18.70622         8.12119
   H       -5.33982       -15.39933         7.95882
*
