# ORCA input file
# SCF done       -219.652840160746          0.000936385622
! CAM-B3LYP def2-SVP def2/J RIJCOSX Grid4 TightSCF
%maxcore 5000
%tddft
    Mode sTDDFT
    Ethresh 5.0
    maxcore 5000
end

%pal
  nprocs 6
  end
* xyz 0 1
   C       -0.49579         1.80148         0.97653
   C        0.71441         2.04764         1.56136
   F        1.14953         3.30550         1.70540
   C        1.51970         0.98472         2.01963
   F        2.70146         1.25590         2.58844
   C        1.10290        -0.30988         1.88617
   C       -0.13894        -0.59642         1.28616
   C       -0.95463         0.47710         0.82322
   C       -2.20340         0.21393         0.21704
   C       -2.62702        -1.08329         0.07989
   C       -1.80674        -2.14782         0.54682
   C       -0.59253        -1.92437         1.12995
   C       -2.46787        -3.43780         0.27527
   O       -1.97463        -4.53671         0.38495
   C       -3.80124        -3.08716        -0.29777
   C       -3.84661        -1.64432        -0.49260
   C       -4.85024        -0.92778        -1.08428
   C       -6.02667        -1.47309        -1.64350
   N       -7.00343        -1.83817        -2.12325
   C       -4.83621         0.47621        -1.23728
   N       -4.88236         1.61186        -1.39471
   C       -4.74671        -3.98996        -0.64730
   C       -4.72251        -5.37997        -0.27224
   C       -5.09844        -6.38394        -1.16189
   C       -5.01802        -7.76256        -0.84552
   N       -5.41889        -8.58808        -1.85283
   C       -5.76307        -7.93664        -2.89074
   S       -5.64729        -6.19467        -2.79596
   C       -4.59177        -8.18758         0.42112
   C       -4.31297        -7.18564         1.34506
   C       -4.36519        -5.80611         1.01740
   N       -4.06114        -4.97349         2.04904
   C       -3.74229        -5.62140         3.09983
   S       -3.78823        -7.35806         2.99083
   C       -4.43175        -9.60897         0.69072
   C       -4.93487       -10.22787         1.84510
   C       -4.73884       -11.63300         2.09891
   N       -5.31057       -12.20269         3.17557
   C       -5.95007       -11.45441         4.02839
   C       -6.08649       -10.03587         3.81230
   N       -5.62285        -9.47763         2.72911
   C       -6.75770        -9.23051         4.76744
   N       -7.28688        -8.59842         5.56225
   C       -6.52665       -12.05145         5.17873
   N       -6.98660       -12.48629         6.13284
   C       -3.98857       -12.44366         1.22935
   C       -3.49707       -11.82965         0.07092
   C       -3.72424       -10.42539        -0.19938
   N       -3.10586       -10.03504        -1.32056
   S       -2.35393       -11.28343        -1.96326
   N       -2.72920       -12.39103        -0.87255
   C       -3.69295       -13.82440         1.57356
   C       -3.76197       -14.87922         0.66912
   C       -3.49976       -16.22541         1.03210
   N       -3.62180       -17.11166         0.00664
   C       -3.99431       -16.53795        -1.07336
   S       -4.23048       -14.82002        -1.00119
   C       -3.14457       -16.57045         2.34987
   C       -3.03005       -15.50009         3.23891
   C       -3.30330       -14.15851         2.88015
   N       -3.11353       -13.26438         3.89184
   C       -2.76644       -13.83838         4.97432
   S       -2.60095       -15.57464         4.91642
   C       -2.84166       -17.90566         2.77508
   C       -3.28683       -19.09296         2.30229
   C       -2.52511       -20.33333         2.64317
   O       -1.68440       -20.45134         3.50147
   C       -2.98178       -21.34271         1.66810
   C       -2.50482       -22.60421         1.45489
   C       -3.07681       -23.39025         0.42989
   C       -4.13430       -22.84939        -0.35853
   C       -4.69357       -23.63615        -1.38577
   C       -4.22683       -24.89930        -1.61827
   C       -3.18199       -25.43342        -0.83702
   C       -2.61875       -24.69602         0.16637
   F       -2.74345       -26.67366        -1.08885
   F       -4.75898       -25.64426        -2.59549
   C       -4.61311       -21.54322        -0.10871
   C       -4.04825       -20.80108         0.89426
   C       -4.34598       -19.45887         1.38331
   C       -5.51333       -18.77763         1.17549
   C       -5.85535       -17.58499         1.84512
   N       -6.18783       -16.62691         2.38214
   C       -6.52947       -19.21032         0.29905
   N       -7.37134       -19.50521        -0.42295
   H       -1.09929         2.62647         0.63143
   H        1.73082        -1.11195         2.24137
   H       -2.79424         1.04832        -0.12437
   H        0.01107        -2.75185         1.47063
   H       -5.58795        -3.69069        -1.26027
   H       -6.11399        -8.39970        -3.79220
   H       -3.46862        -5.14935         4.02337
   H       -4.15565       -17.06991        -1.99114
   H       -2.57626       -13.31212         5.88943
   H       -2.10029       -17.97749         3.56749
   H       -1.69997       -22.99630         2.05787
   H       -5.49628       -23.24442        -1.99077
   H       -1.81999       -25.11897         0.75526
   H       -5.40849       -21.15524        -0.72478
*
