# ORCA input file
# SCF done       -296.229803126187          0.000687354083
! CAM-B3LYP def2-SVP def2/J RIJCOSX Grid4 TightSCF
%maxcore 5000
%tddft
    Mode sTDDFT
    Ethresh 5.0
    maxcore 5000
end

%pal
  nprocs 6
  end
* xyz 0 1
   C      -17.54326       -17.28791       -11.06118
   C      -17.46731       -16.85645       -12.35560
   F      -18.28734       -17.36491       -13.28440
   C      -16.52817       -15.87453       -12.73071
   F      -16.47545       -15.47077       -14.00720
   C      -15.67746       -15.33798       -11.80554
   C      -15.73044       -15.76265       -10.46365
   C      -16.68036       -16.75441       -10.08251
   C      -16.75344       -17.19506        -8.74142
   C      -15.89959       -16.66273        -7.81098
   C      -14.94894       -15.68199        -8.20272
   C      -14.85898       -15.23093        -9.48800
   C      -14.13465       -15.28486        -7.03705
   O      -13.29393       -14.41083        -7.03632
   C      -14.57401       -16.16373        -5.92550
   C      -15.73844       -16.91188        -6.38212
   C      -16.58879       -17.66395        -5.61646
   C      -16.51531       -17.83502        -4.21648
   N      -16.54813       -18.01190        -3.08240
   C      -17.71106       -18.34819        -6.13168
   N      -18.63339       -18.93072        -6.48843
   C      -13.96825       -16.39112        -4.72143
   C      -12.82240       -15.81674        -4.12663
   C      -12.03628       -14.74417        -4.47484
   C      -10.95127       -14.53063        -3.60572
   C       -9.95239       -13.53279        -3.70346
   C       -9.90999       -12.57078        -4.78418
   C       -9.55891       -11.25071        -4.70943
   C       -9.57517       -10.61303        -5.96635
   C       -9.91727       -11.42813        -7.00822
   S      -10.24149       -13.02411        -6.43324
   C      -10.03173       -11.09543        -8.45019
  Cl       -9.19100        -8.94542        -6.15541
   C       -8.98007       -13.54075        -2.71396
   C       -8.93950       -14.48894        -1.65492
   C       -9.95403       -15.46540        -1.53670
   C      -10.93639       -15.45321        -2.52334
   S      -12.25292       -16.57714        -2.64368
   C       -9.98598       -16.40797        -0.43754
   C       -8.96614       -17.08240         0.17417
   C       -9.41433       -17.89222         1.24050
   C      -10.76155       -17.84392         1.46317
   S      -11.51345       -16.78328         0.32589
   C      -11.55780       -18.55122         2.49632
  Cl       -8.34344       -18.85146         2.18019
   C       -7.81246       -14.30671        -0.82862
   C       -6.99517       -13.28214        -1.23576
   S       -7.62056       -12.45179        -2.64437
   C       -5.74990       -12.93250        -0.66563
   C       -4.98530       -13.72682         0.19681
   C       -3.72031       -13.12886         0.53438
   N       -2.86394       -13.74944         1.34888
   C       -3.20535       -14.93931         1.79065
   C       -2.26331       -15.60707         2.72161
   O       -1.23974       -15.07935         3.10505
   C       -2.67198       -16.95373         3.15673
   C       -3.78948       -17.56046         2.74160
   C       -4.74261       -16.95593         1.79593
   O       -5.69629       -17.56010         1.35193
   C       -4.42928       -15.56315         1.39448
   N       -5.30341       -14.95115         0.62661
   C       -3.52217       -11.88458        -0.08025
   S       -4.89856       -11.47240        -1.04624
   C       -2.35285       -11.09772         0.00835
   C       -1.19570       -11.47743         0.64190
   C       -0.15150       -10.54528         0.50837
   C        1.15826       -10.65461         1.02456
   C        1.59417       -11.84546         1.71833
   C        1.30991       -13.15100         1.42459
   C        1.88667       -14.05130         2.34134
   C        2.60450       -13.45618         3.34142
   S        2.59166       -11.74041         3.14598
   C        3.30751       -14.09965         4.47875
  Cl        1.70187       -15.75049         2.20896
   C        1.98216        -9.55531         0.82903
   C        1.57006        -8.36596         0.17353
   C        0.26201        -8.26619        -0.35854
   C       -0.55255        -9.38210        -0.20143
   S       -2.20195        -9.52661        -0.75336
   C       -0.22893        -7.07012        -1.00807
   C       -1.08460        -6.98229        -2.07073
   C       -1.41556        -5.65050        -2.39732
   C       -0.83936        -4.71062        -1.59133
   S        0.15372        -5.47984        -0.40240
   C       -0.97180        -3.23332        -1.64059
  Cl       -2.46553        -5.26095        -3.70463
   C        2.62251        -7.43082         0.09269
   C        3.79122        -7.85008         0.67993
   S        3.64682        -9.47785         1.31081
   C        5.01565        -7.13376         0.68747
   C        6.14982        -7.39972         1.38645
   C        7.45713        -6.87671         0.90017
   O        7.63505        -5.97391         0.11741
   C        8.46998        -7.75574         1.52300
   C        9.81594        -7.80360         1.30004
   C       10.59223        -8.76463         1.98592
   C        9.95605        -9.66148         2.89322
   C       10.73660       -10.62360         3.56530
   C       12.08415       -10.69120         3.34884
   C       12.71237        -9.80281         2.45290
   C       11.98336        -8.85884         1.78573
   F       14.03504        -9.89314         2.25914
   F       12.82369       -11.60694         3.98811
   C        8.56213        -9.58100         3.11374
   C        7.83118        -8.63970         2.44036
   C        6.41240        -8.30324         2.48961
   C        5.56186        -8.56812         3.52879
   C        4.31489        -7.92052         3.67455
   N        3.33567        -7.34922         3.84965
   C        5.87015        -9.44094         4.59037
   N        6.07077       -10.17302         5.45122
   H      -18.26899       -18.03896       -10.79082
   H      -14.96408       -14.58769       -12.10863
   H      -17.47964       -17.94984        -8.48739
   H      -14.12911       -14.48227        -9.75612
   H      -14.39704       -17.18262        -4.11715
   H      -12.25001       -14.13641        -5.33320
   H       -9.33882       -10.73252        -3.79471
   H       -9.90302       -10.02529        -8.59207
   H      -11.00753       -11.39263        -8.83136
   H       -9.27125       -11.62090        -9.02789
   H       -7.93557       -17.05498        -0.12870
   H      -10.91421       -19.23237         3.04704
   H      -12.36758       -19.11521         2.03579
   H      -12.00019       -17.84042         3.19410
   H       -7.58650       -14.89892         0.03686
   H       -1.99150       -17.43906         3.84345
   H       -4.04624       -18.55614         3.07764
   H       -1.13140       -12.39279         1.19922
   H        0.74767       -13.46907         0.56662
   H        2.59618       -14.35265         5.26619
   H        4.05645       -13.42982         4.89359
   H        3.78428       -15.02116         4.14863
   H       -1.44133        -7.82490        -2.63297
   H       -1.65476        -2.95332        -2.43855
   H       -0.00426        -2.76635        -1.82264
   H       -1.35443        -2.85079        -0.69498
   H        2.53530        -6.46679        -0.37367
   H        5.08771        -6.32442        -0.03234
   H       10.28273        -7.11986         0.60747
   H       10.27213       -11.30911         4.25674
   H       12.47899        -8.18653         1.10305
   H        8.10100       -10.27350         3.80010
*
