# ORCA input file
# SCF done       -214.127121336928          0.000861431533
! CAM-B3LYP def2-SVP def2/J RIJCOSX Grid4 TightSCF
%maxcore 5000
%tddft
    Mode sTDDFT
    Ethresh 5.0
    maxcore 5000
end

%pal
  nprocs 6
  end
* xyz 0 1
   C      -10.12593         1.18789         4.98217
   C      -10.38763         1.34845         6.31426
   F      -11.08758         2.40727         6.73980
   C       -9.92534         0.40620         7.25481
   F      -10.19569         0.58890         8.55366
   C       -9.20715        -0.68412         6.84987
   C       -8.91982        -0.87592         5.48476
   C       -9.38687         0.07564         4.53249
   C       -9.10585        -0.09286         3.15654
   C       -8.37499        -1.17606         2.74613
   C       -7.91129        -2.11935         3.70593
   C       -8.17162        -1.98823         5.03926
   C       -7.14020        -3.16706         3.01681
   O       -6.62781        -4.14601         3.53112
   C       -7.11429        -2.78968         1.59925
   C       -7.91519        -1.59476         1.42264
   C       -8.21419        -0.96051         0.24431
   C       -7.78459        -1.36238        -1.03809
   N       -7.47573        -1.62499        -2.11267
   C       -9.01919         0.19507         0.15493
   N       -9.66617         1.13329         0.01800
   C       -6.38648        -3.43112         0.62763
   C       -5.54467        -4.54415         0.73312
   C       -4.75703        -4.99074        -0.33343
   C       -3.92511        -6.09253        -0.05140
   C       -3.06258        -6.34818        -1.15414
   C       -3.27855        -5.55444        -2.23705
   S       -4.55309        -4.39510        -1.94058
   C       -2.57767        -5.59736        -3.54318
   F       -2.05114        -7.23290        -1.12771
   C       -4.12626        -6.56348         1.25262
   S       -5.23766        -5.55195         2.13174
   C       -3.60497        -7.72268         1.88097
   C       -3.23153        -8.89136         1.17141
   C       -2.60364       -10.01585         1.82416
   N       -2.15972       -11.03335         1.08053
   C       -2.37901       -11.04981        -0.21406
   C       -3.16616       -10.02117        -0.81914
   N       -3.54949        -8.97938        -0.12407
   C       -3.53262       -10.09249        -2.18655
   N       -3.80638       -10.14691        -3.29695
   C       -1.85980       -12.11021        -0.99554
   N       -1.46468       -12.95211        -1.66438
   C       -2.46109       -10.07772         3.23259
   C       -2.97684        -8.97032         3.94561
   C       -3.51152        -7.81015         3.28670
   N       -3.87622        -6.87271         4.16059
   S       -3.59732        -7.39152         5.64922
   N       -2.99231        -8.83350         5.27083
   C       -1.82310       -11.13376         3.92269
   C       -1.06545       -12.21000         3.47156
   C       -0.50654       -12.99430         4.50936
   C        0.29312       -14.03961         3.98270
   C        0.35136       -14.06531         2.62458
   S       -0.61414       -12.78787         1.90753
   C        1.09905       -15.01538         1.76824
   F        0.93082       -14.92820         4.76184
   C       -0.84174       -12.54463         5.79174
   S       -1.86814       -11.13664         5.66367
   C       -0.51922       -13.17458         7.00412
   C       -0.78949       -12.76439         8.28102
   C       -0.88888       -13.78280         9.36193
   O       -0.46088       -14.91211         9.34359
   C       -1.69334       -13.13315        10.42021
   C       -2.19571       -13.67368        11.56809
   C       -2.98364       -12.86636        12.41972
   C       -3.23546       -11.50947        12.06317
   C       -4.03134       -10.71488        12.91232
   C       -4.55114       -11.24108        14.06156
   C       -4.29987       -12.58217        14.41418
   C       -3.53186       -13.37859        13.61162
   F       -4.82371       -13.07186        15.54566
   F       -5.30869       -10.48356        14.86560
   C       -2.69061       -10.97300        10.87371
   C       -1.92935       -11.77361        10.06619
   C       -1.22320       -11.49583         8.81835
   C       -0.82607       -10.25395         8.39212
   C        0.15042       -10.06314         7.39181
   N        0.98840        -9.87424         6.63052
   C       -1.29760        -9.04526         8.93610
   N       -1.69160        -8.03169         9.30590
   H      -10.48740         1.91881         4.27588
   H       -8.85958        -1.39589         7.58209
   H       -9.47179         0.64747         2.46407
   H       -7.80660        -2.71951         5.74415
   H       -6.41914        -3.01907        -0.37462
   H       -1.74237        -6.29176        -3.49107
   H       -2.21058        -4.60916        -3.81605
   H       -3.25925        -5.93019        -4.32605
   H        1.52900       -15.80926         2.37460
   H        1.90153       -14.49757         1.24287
   H        0.43964       -15.44731         1.01700
   H       -0.09620       -14.17132         6.92115
   H       -1.99777       -14.70358        11.82296
   H       -4.23096        -9.68535        12.65938
   H       -3.34919       -14.40324        13.89514
   H       -2.89899        -9.94516        10.62194
*
