# ORCA input file
# SCF done       -230.559439931161          0.000327068030
! CAM-B3LYP def2-SVP def2/J RIJCOSX Grid4 TightSCF
%maxcore 5000
%tddft
    Mode sTDDFT
    Ethresh 5.0
    maxcore 5000
end

%pal
  nprocs 6
  end
* xyz 0 1
   C        4.81633         7.27373        -1.05455
   C        4.77432         7.78392         0.21696
   C        5.66237         7.40510         1.24372
   N        6.34475         7.11651         2.12083
   C        3.89066         8.80155         0.62927
   N        3.22337         9.65531         1.00780
   C        5.87404         6.41601        -1.58001
   C        5.85403         6.49115        -3.00350
   C        6.75695         5.81324        -3.77045
   C        7.73019         5.00645        -3.13849
   C        7.74605         4.91539        -1.71662
   C        6.80294         5.63493        -0.94712
   C        8.71744         4.10171        -1.09909
   C        9.63161         3.41179        -1.84776
   C        9.61546         3.50210        -3.24758
   C        8.68557         4.28285        -3.87897
   C        4.73950         7.35630        -3.42926
   O        4.44497         7.69891        -4.55081
   C        3.99479         7.67904        -2.17623
   C        2.72561         8.15702        -2.27302
   C        1.70032         8.17159        -1.29406
   C        1.57419         7.39589        -0.16488
   C        0.38968         7.63731         0.55015
   C       -0.40620         8.62714        -0.05682
   S        0.31423         9.22152        -1.51794
   C       -1.61701         9.07142         0.46577
   O       -2.21306        10.03017        -0.27281
   C       -3.39847        10.68659         0.11171
   C       -2.04139         8.45436         1.66625
   C       -1.22711         7.44825         2.28689
   C       -0.01982         7.02701         1.76281
   O        0.84780         6.10376         2.23450
   C        0.66626         5.51423         3.50152
   S       -1.99669         6.84404         3.75010
   C       -3.35986         7.90159         3.52675
   C       -3.22564         8.67456         2.39771
   C       -4.43558         7.88582         4.46089
   C       -5.59111         8.69828         4.37346
   C       -6.63428         8.62009         5.36914
   N       -7.71566         9.40155         5.26495
   C       -7.83249        10.23692         4.25960
   C       -6.80287        10.31220         3.27372
   N       -5.72909         9.55695         3.35357
   C       -6.90088        11.20022         2.17502
   N       -6.96807        11.91280         1.27986
   C       -8.98196        11.05707         4.15868
   N       -9.89306        11.74016         4.03213
   C       -6.58532         7.74590         6.47718
   C       -5.43477         6.93193         6.56297
   C       -4.39062         7.01248         5.56931
   N       -3.39288         6.16932         5.82664
   S       -3.71990         5.35519         7.17422
   N       -5.14599         6.02931         7.50191
   C       -7.64934         7.72454         7.42426
   C       -7.72337         6.91335         8.53578
   C       -8.88654         7.10662         9.30980
   C       -9.70415         8.11461         8.73311
   S       -9.02543         8.77766         7.26580
   C      -10.91432         8.56441         9.24040
   O      -11.49402         9.53641         8.50957
   C      -12.74988        10.08473         8.83850
   C      -11.36252         7.96125        10.44176
   C      -10.54574         6.94448        11.01341
   C       -9.33623         6.49256        10.50155
   O       -8.75638         5.51550        11.23689
   C       -7.53867         4.92146        10.85869
   S      -11.22198         6.30045        12.47567
   C      -12.58586         7.40355        12.35475
   C      -12.50867         8.18960        11.22633
   C      -13.56647         7.32965        13.36961
   C      -14.62095         8.14805        13.66728
   C      -15.53800         7.89008        14.76957
   C      -15.73102         6.69605        15.41355
   C      -16.65389         6.51074        16.46470
   N      -17.38008         6.29355        17.32704
   C      -15.09433         5.47557        15.10182
   N      -14.64870         4.43603        14.90192
   C      -16.29441         9.11006        15.01983
   C      -15.95161        10.06082        14.01844
   C      -14.95075         9.48229        13.10745
   O      -14.50322        10.02625        12.11637
   C      -16.51061        11.30581        13.98134
   C      -17.45213        11.66665        14.97068
   C      -17.79451        10.72382        15.98259
   C      -17.20210         9.43992        15.99108
   C      -18.73157        11.09613        16.96767
   C      -19.30470        12.33867        16.95493
   C      -18.96703        13.26598        15.95794
   C      -18.06068        12.93699        14.98673
   H        6.72895         5.88946        -4.84724
   H        6.83138         5.54056         0.12729
   H        8.72773         4.03792        -0.02084
   H       10.37290         2.79262        -1.36513
   H       10.34336         2.94999        -3.82305
   H        8.66846         4.35637        -4.95653
   H        2.44348         8.50991        -3.26030
   H        2.27933         6.64049         0.13001
   H       -3.55209        11.45572        -0.64448
   H       -3.29911        11.16314         1.08986
   H       -4.25699        10.00995         0.10568
   H        1.55053         4.89731         3.65746
   H       -0.22553         4.88339         3.53118
   H        0.60686         6.26725         4.29044
   H       -3.99718         9.36969         2.13786
   H       -6.93235         6.21953         8.74141
   H      -12.73008        10.59675         9.80351
   H      -13.53314         9.32217         8.83487
   H      -12.95253        10.81032         8.05143
   H       -7.61345         4.43965         9.88018
   H       -7.34603         4.16433        11.61828
   H       -6.72085         5.64721        10.85821
   H      -13.27663         8.90538        11.01258
   H      -13.41354         6.48982        14.03788
   H      -16.23577        12.00763        13.20782
   H      -17.47822         8.75149        16.77373
   H      -18.98940        10.37826        17.73245
   H      -20.02202        12.61388        17.71353
   H      -19.42839        14.24220        15.96335
   H      -17.79656        13.64687        14.21648
*
