# ORCA input file
# SCF done       -267.577791153472          0.000452930056
! CAM-B3LYP def2-SVP def2/J RIJCOSX Grid4 TightSCF
%maxcore 5000
%tddft
    Mode sTDDFT
    Ethresh 5.0
    maxcore 5000
end

%pal
  nprocs 6
  end
* xyz 0 1
   C       -7.18363        -0.11637         2.96798
   C       -7.56386        -0.37834         4.37686
   O       -7.63646        -1.43327         4.97040
   C       -7.85228         0.94744         4.96347
   C       -7.61764         1.95331         4.01249
   C       -7.15295         1.33023         2.77731
   C       -6.72213         2.01482         1.67236
   C       -6.72256         3.42339         1.56807
   N       -6.70101         4.55982         1.40921
   C       -6.18600         1.45829         0.49004
   N       -5.71923         1.11018        -0.49983
   C       -7.83561         3.28001         4.35972
   C       -8.27611         3.57311         5.64065
   C       -8.49697         2.56217         6.57057
   C       -8.28731         1.22840         6.24233
  Cl       -9.04014         2.97301         8.15227
   C       -6.96267        -1.00857         1.95623
   C       -6.95527        -2.42138         1.93017
   C       -7.10370        -3.36933         2.91309
   C       -7.02368        -4.69340         2.44401
   C       -7.16314        -5.88203         3.19737
   C       -7.47466        -5.87582         4.61057
   C       -6.97822        -6.70632         5.57742
   C       -7.52753        -6.44675         6.84924
   C       -8.45109        -5.44004         6.87105
   S       -8.64815        -4.78022         5.28726
   C       -9.22207        -4.91090         8.02356
  Cl       -7.06203        -7.33410         8.24944
   C       -7.00005        -7.07151         2.50132
   C       -6.73253        -7.13919         1.10892
   C       -6.62426        -5.95511         0.34964
   C       -6.76030        -4.75800         1.04836
   S       -6.67823        -3.16890         0.35697
   C       -6.41184        -5.96213        -1.08307
   C       -5.65796        -5.09668        -1.82427
   C       -5.72003        -5.36317        -3.20892
   C       -6.52411        -6.41293        -3.54789
   S       -7.21931        -7.10690        -2.12411
   C       -6.81842        -6.96729        -4.89241
  Cl       -4.84855        -4.42870        -4.36183
   C       -6.60632        -8.47461         0.66276
   C       -6.80992        -9.40418         1.64558
   S       -7.14718        -8.66319         3.19367
   C       -6.76432       -10.82091         1.52036
   C       -6.38559       -11.55644         0.41289
   C       -6.46679       -12.92954         0.64810
   C       -6.91932       -13.23586         1.94150
   S       -7.23185       -11.83987         2.86971
   C       -6.97232       -14.64760         2.07811
   C       -6.53911       -15.23300         0.87795
   C       -6.21271       -14.17345        -0.06375
   C       -5.77253       -14.31209        -1.34703
   C       -5.50928       -13.19738        -2.17074
   N       -5.30072       -12.29025        -2.84046
   C       -5.55821       -15.57637        -1.93591
   N       -5.38225       -16.60126        -2.41854
   C       -6.55691       -16.62945         0.91925
   C       -7.01134       -17.10340         2.13276
   S       -7.41643       -15.80624         3.24820
   C       -7.18795       -18.45567         2.53471
   C       -7.76822       -18.90687         3.68700
   C       -7.81272       -20.31573         3.78674
   C       -8.32645       -21.09095         4.84811
   C       -9.06251       -20.47893         5.93307
   C       -9.95967       -19.45063         5.85238
   C      -10.52676       -19.12299         7.10155
   C      -10.07685       -19.88266         8.14274
   S       -8.92665       -21.04498         7.57531
   C      -10.46990       -19.82069         9.57257
  Cl      -11.68738       -17.86456         7.28402
   C       -8.13086       -22.46284         4.75694
   C       -7.51321       -23.09536         3.64711
   C       -7.03544       -22.32177         2.56637
   C       -7.20603       -20.94488         2.67130
   S       -6.65600       -19.76842         1.50713
   C       -6.37425       -22.90258         1.41775
   C       -6.45770       -22.50666         0.11242
   C       -5.62048       -23.25528        -0.74176
   C       -4.87987       -24.21307        -0.11020
   S       -5.22987       -24.20872         1.58380
   C       -3.89813       -25.16355        -0.68890
  Cl       -5.54685       -22.96825        -2.43678
   C       -7.52137       -24.50109         3.77827
   C       -8.12852       -24.95178         4.92089
   S       -8.66474       -23.62348         5.93376
   C       -8.24610       -26.30943         5.32189
   C       -9.07454       -26.84663         6.25304
   C       -8.74936       -28.16122         6.87328
   O       -7.96374       -28.98360         6.46842
   C       -9.55118       -28.19797         8.11807
   C      -10.39730       -27.07366         8.16932
   C      -10.23369       -26.30756         6.93912
   C      -11.15210       -25.44522         6.40431
   C      -12.28793       -24.98030         7.09660
   N      -13.20736       -24.55077         7.63267
   C      -11.10038       -25.00179         5.06438
   N      -11.12599       -24.68371         3.96205
   C      -11.22721       -26.88652         9.26455
   C      -11.20339       -27.82232        10.28650
   C      -10.37063       -28.93486        10.21572
   C       -9.52937       -29.13854         9.12749
  Cl      -10.38259       -30.07887        11.50285
   H       -7.67477         4.08317         3.66001
   H       -8.45045         4.59916         5.92417
   H       -8.45531         0.43481         6.95298
   H       -6.77281        -0.57750         0.98014
   H       -7.25582        -3.10328         3.94169
   H       -6.21807        -7.44634         5.40943
   H       -8.84282        -5.33967         8.94791
   H      -10.27851        -5.16274         7.92798
   H       -9.13847        -3.82638         8.06994
   H       -5.04520        -4.31834        -1.40945
   H       -6.31829        -6.37027        -5.65067
   H       -7.89073        -6.96121        -5.08482
   H       -6.47070        -7.99746        -4.96673
   H       -6.37284        -8.74384        -0.34936
   H       -6.06353       -11.10822        -0.50830
   H       -6.26466       -17.28104         0.11543
   H       -8.12571       -18.24264         4.45251
   H      -10.25009       -18.97466         4.93435
   H      -10.90559       -18.84891         9.79320
   H       -9.60786       -19.98473        10.21551
   H      -11.21077       -20.58943         9.79632
   H       -7.11802       -21.73921        -0.24586
   H       -3.87122       -25.04743        -1.76934
   H       -4.16866       -26.19074        -0.44761
   H       -2.90151       -24.97722        -0.28901
   H       -7.13852       -25.17480         3.03417
   H       -7.52261       -26.99139         4.88599
   H      -11.87544       -26.02806         9.33739
   H      -11.83810       -27.69192        11.14891
   H       -8.88137       -29.99846         9.06629
*
