# ORCA input file
# SCF done       -209.300444019453          0.000417724826
! CAM-B3LYP def2-SVP def2/J RIJCOSX Grid4 TightSCF
%maxcore 5000
%tddft
    Mode sTDDFT
    Ethresh 5.0
    maxcore 5000
end

%pal
  nprocs 6
  end
* xyz 0 1
   C        4.86447         7.08912        -1.97982
   C        3.87966         7.98238        -2.29825
   F        4.19298         9.09730        -2.98236
   C        2.53953         7.78400        -1.93852
   C        2.20138         6.65601        -1.24422
   C        3.17641         5.70069        -0.89050
   C        4.53474         5.92256        -1.26283
   C        5.53259         4.98459        -0.90867
   C        5.17922         3.86200        -0.21084
   C        3.81661         3.63504         0.14141
   C        2.83548         4.52835        -0.17973
   C        3.70052         2.34207         0.84228
   O        2.71401         1.84271         1.33128
   C        5.05969         1.73468         0.75801
   C        5.98021         2.76484         0.32391
   C        7.31518         2.83113         0.62235
   C        7.96819         1.88251         1.43706
   N        8.51269         1.16183         2.14507
   C        8.15109         3.89742         0.23539
   N        8.86999         4.73519        -0.07862
   C        5.19770         0.39467         0.94424
   C        6.22853        -0.47711         0.52261
   C        6.37818        -1.79470         0.91205
   C        7.43883        -2.43725         0.27915
  Cl        7.85921        -4.06723         0.59555
   C        8.12432        -1.64268        -0.63484
   S        7.41164        -0.06260        -0.68870
   C        9.24387        -1.98221        -1.43105
   C        9.98701        -1.15773        -2.26665
  Cl        9.63683         0.50310        -2.49586
   C       11.05547        -1.79480        -2.90123
   C       11.15065        -3.12902        -2.57574
   S        9.90533        -3.59392        -1.45638
   C       12.10576        -4.07165        -3.03730
   C       12.15344        -5.42154        -2.77642
   C       13.23437        -6.05412        -3.39569
  Cl       13.52648        -7.73540        -3.24355
   C       14.04551        -5.20783        -4.13794
   S       13.42547        -3.58258        -4.05979
   C       15.21971        -5.52875        -4.86587
   C       16.06009        -4.67443        -5.56442
  Cl       15.79000        -2.98735        -5.68636
   C       17.15566        -5.30416        -6.16276
   C       17.17494        -6.66083        -5.94232
   S       15.81886        -7.16062        -4.97575
   C       18.13652        -7.60570        -6.39353
   C       18.11943        -8.97053        -6.23087
   C       19.23422        -9.60451        -6.79823
  Cl       19.50787       -11.28612        -6.63040
   C       20.11830        -8.73739        -7.40958
   S       19.55701        -7.09575        -7.25558
   C       21.35790        -8.99345        -8.07272
   C       21.70829        -9.98805        -8.96803
  Cl       20.61122       -11.15475        -9.57257
   C       23.03464        -9.90854        -9.40671
   C       23.71748        -8.82468        -8.89687
   S       22.69619        -7.92251        -7.80942
   C       25.08659        -8.52364        -9.11381
   C       25.76879        -7.37701        -8.86344
   C       27.25245        -7.42605        -8.70707
   O       27.98520        -8.32547        -9.04498
   C       27.60083        -6.18198        -7.99498
   C       28.80724        -5.79198        -7.48816
   C       28.90281        -4.55714        -6.80871
   C       27.73795        -3.74811        -6.66035
   C       27.84004        -2.52298        -5.97305
   C       29.05014        -2.13479        -5.46899
   C       30.20715        -2.91410        -5.60734
   C       30.12568        -4.10730        -6.26936
   F       29.14955        -0.96505        -4.81338
   C       26.50275        -4.17237        -7.20305
   C       26.43781        -5.36751        -7.86630
   C       25.33478        -6.02881        -8.55558
   C       24.22829        -5.40516        -9.06567
   C       23.35750        -6.02034        -9.99002
   N       22.66628        -6.47274       -10.78643
   C       23.89887        -4.05964        -8.80555
   N       23.58305        -2.97456        -8.60607
   H        5.88650         7.27680        -2.26968
   H        1.80609         8.52400        -2.21692
   H        1.17580         6.48073        -0.95608
   H        6.55204         5.17156        -1.20751
   H        1.81061         4.34310         0.10499
   H        4.34395        -0.09308         1.40592
   H        5.75598        -2.26719         1.64978
   H       11.73039        -1.29915        -3.57459
   H       11.43407        -5.93350        -2.16398
   H       17.90170        -4.78448        -6.73569
   H       17.33636        -9.49495        -5.71440
   H       23.46499       -10.59927       -10.10850
   H       25.69450        -9.35966        -9.44716
   H       29.67907        -6.41828        -7.60378
   H       26.97099        -1.89556        -5.85114
   H       31.13433        -2.55587        -5.18906
   H       31.00300        -4.72509        -6.38828
   H       25.63378        -3.54685        -7.07194
*
