# ORCA input file
# SCF done       -230.175548010830          0.000191700872
! CAM-B3LYP def2-SVP def2/J RIJCOSX Grid4 TightSCF
%maxcore 5000
%tddft
    Mode sTDDFT
    Ethresh 5.0
    maxcore 5000
end

%pal
  nprocs 6
  end
* xyz 0 1
   C        1.34715         1.32798         2.88161
   C        0.53282         2.42977         3.09730
   C       -0.83293         2.28468         3.29882
   C       -1.42349         1.03014         3.30302
   C       -0.61878        -0.07803         3.09515
   C        0.77003         0.06751         2.87380
   C        1.35415        -1.24842         2.65339
   C        2.68832        -1.52660         2.53269
   C        3.70899        -0.55395         2.61275
   N        4.58779         0.18161         2.66806
   C        3.24348        -2.81178         2.35417
   N        3.75979        -3.82709         2.21001
   C        0.24248        -2.19437         2.58297
   C       -0.94119        -1.49511         3.07909
   C       -2.03150        -2.06107         3.68220
   C       -2.20533        -3.44344         3.89751
   N       -2.38770        -4.54977         4.14596
   C       -3.08505        -1.31896         4.25954
   N       -3.97135        -0.77724         4.74600
   C        0.32710        -3.44991         2.05392
   C       -0.74701        -4.25322         1.60404
   C       -1.99624        -3.86223         1.14239
   C       -2.78441        -4.94662         0.78289
   C       -2.13119        -6.18305         0.96735
   S       -0.54073        -5.99890         1.54093
   C       -3.03821        -7.21829         0.63696
   C       -4.25884        -6.64231         0.23924
   C       -4.13729        -5.19486         0.31363
   C       -5.09276        -4.26190         0.03803
   C       -6.37747        -4.62101        -0.42266
   N       -7.41409        -4.92389        -0.80619
   C       -4.83874        -2.88368         0.20261
   N       -4.60943        -1.76989         0.34919
   C       -5.23035        -7.59214        -0.06501
   C       -4.77482        -8.88949         0.11849
   S       -3.09645        -8.92312         0.64850
   C       -5.53475       -10.07343        -0.13678
   C       -6.73957        -9.87444        -0.97509
   C       -8.00411       -10.08936        -0.43214
   C       -9.13146        -9.93336        -1.21351
   C       -9.00759        -9.60533        -2.55914
   C       -7.74716        -9.36844        -3.09901
   C       -6.62214        -9.47769        -2.30413
   C      -10.24171        -9.47018        -3.40045
   O      -11.23506        -8.92491        -3.00740
   O      -10.15610        -9.99372        -4.62661
   C       -5.22106       -11.31243         0.35811
   C       -4.19778       -11.48400         1.41262
   C       -4.38959       -10.90195         2.66430
   C       -3.45349       -11.06851         3.66542
   C       -2.31063       -11.83048         3.43250
   C       -2.13551       -12.43962         2.19230
   C       -3.06786       -12.26776         1.19030
   C       -1.26115       -12.06552         4.47139
   O       -0.54330       -13.02592         4.45453
   O       -1.14702       -11.13420         5.43182
   C       -5.87778       -12.51604        -0.05367
   C       -6.60412       -12.78309        -1.20348
   C       -7.07938       -14.09031        -1.23197
   C       -6.70137       -14.84175        -0.10391
   S       -5.76883       -13.92849         0.99312
   C       -7.22543       -16.15131        -0.23779
   C       -7.93786       -16.22235        -1.45462
   C       -7.88668       -14.92607        -2.10501
   C       -8.52775       -14.55906        -3.25393
   C       -9.31022       -15.48481        -3.97892
   N       -9.93297       -16.25814        -4.55153
   C       -8.48006       -13.25242        -3.76978
   N       -8.46103       -12.18673        -4.19668
   C       -8.52770       -17.46198        -1.66335
   C       -8.28334       -18.34114        -0.61799
   S       -7.26547       -17.61551         0.62259
   C       -8.68582       -19.68690        -0.45786
   C       -9.73299       -20.32553        -1.05738
   C       -9.85243       -21.77942        -1.15893
   C       -9.19217       -22.72011        -0.41671
   C       -8.28617       -22.45113         0.63165
   N       -7.54422       -22.30559         1.49571
   C       -9.36472       -24.11312        -0.57259
   N       -9.45506       -25.25467        -0.64384
   C      -10.82342       -22.04712        -2.21072
   C      -11.40456       -20.82500        -2.61927
   C      -12.34600       -20.79276        -3.63480
   C      -12.71228       -21.98873        -4.23345
   C      -12.15486       -23.19217        -3.82380
   C      -11.20631       -23.23569        -2.81297
   C      -10.85778       -19.75731        -1.79727
   C      -11.46707       -18.55425        -1.56610
   C      -12.63753       -18.12543        -2.23030
   N      -13.58709       -17.72284        -2.73176
   C      -11.07245       -17.63243        -0.57536
   N      -10.82120       -16.85994         0.23603
   H        2.40374         1.46182         2.71844
   H        0.97119         3.41587         3.10217
   H       -1.44649         3.15884         3.45287
   H       -2.48664         0.92866         3.44858
   H        1.31079        -3.87584         1.90955
   H       -2.29093        -2.83250         1.04846
   H       -6.23294        -7.36693        -0.38077
   H       -8.09533       -10.37280         0.60589
   H      -10.11698       -10.07712        -0.79843
   H       -7.64515        -9.07828        -4.13466
   H       -5.64277        -9.28817        -2.71901
   H       -9.37181       -10.56572        -4.72892
   H       -5.27948       -10.31713         2.84641
   H       -3.64575       -10.62829         4.63483
   H       -1.25550       -13.04415         2.03625
   H       -2.92042       -12.72916         0.22507
   H       -1.74368       -10.38444         5.30640
   H       -6.74907       -12.07104        -1.99267
   H       -9.07636       -17.73636        -2.54613
   H       -8.04247       -20.27544         0.18257
   H      -12.77625       -19.86248        -3.96816
   H      -13.44019       -21.98044        -5.02998
   H      -12.45815       -24.11106        -4.30156
   H      -10.77823       -24.17849        -2.51505
*
