# ORCA input file
# SCF done       -221.266197532463          0.000716955057
! CAM-B3LYP def2-SVP def2/J RIJCOSX Grid4 TightSCF
%maxcore 5000
%tddft
    Mode sTDDFT
    Ethresh 5.0
    maxcore 5000
end

%pal
  nprocs 6
  end
* xyz 0 1
   C       -4.70860        -1.96537         7.47929
   C       -4.28871        -2.83713         8.47341
   C       -3.53192        -3.96004         8.17018
   C       -3.16524        -4.24090         6.86226
   C       -3.58083        -3.37928         5.86163
   C       -4.35932        -2.23883         6.16641
   C       -4.65933        -1.52805         4.92979
   C       -5.26286        -0.30148         4.82708
   C       -5.70733         0.45778         5.92964
   N       -6.09167         1.12412         6.78147
   C       -5.47060         0.38853         3.61614
   N       -5.64838         0.99520         2.65627
   C       -4.17641        -2.36535         3.84105
   C       -3.32442        -3.38742         4.43099
   C       -2.27797        -4.01100         3.80270
   C       -1.88703        -3.68595         2.48831
   N       -1.53305        -3.37081         1.44227
   C       -1.43062        -4.94878         4.42424
   N       -0.72520        -5.72967         4.88221
   C       -4.56137        -2.24104         2.53342
   C       -4.50627        -3.22991         1.52503
   C       -4.54198        -3.05545         0.13953
   O       -4.45128        -1.90799        -0.55478
   C       -3.91654        -0.73091         0.02454
   C       -4.63732        -4.28860        -0.56297
   O       -4.72112        -4.50944        -1.89030
   C       -4.28081        -3.52231        -2.80305
   C       -4.68643        -5.38964         0.27761
   S       -4.58782        -4.93106         1.94100
   C       -4.75566        -6.74556        -0.12666
   C       -4.78191        -7.85014         0.68242
   C       -4.81679        -9.06842        -0.02907
   C       -4.85500       -10.38096         0.49047
   C       -4.97301       -10.65717         1.90676
   C       -4.41886       -11.68572         2.61529
   C       -4.81518       -11.69397         3.96960
   C       -5.67748       -10.69388         4.31399
   S       -6.00530        -9.69840         2.93709
   C       -6.28305       -10.40178         5.63762
  Cl       -4.25627       -12.88223         5.08236
   C       -4.80150       -11.41518        -0.43871
   C       -4.76373       -11.19791        -1.83994
   C       -4.78397        -9.88595        -2.35902
   C       -4.78229        -8.85176        -1.43198
   S       -4.77277        -7.15328        -1.82293
   C       -4.80866        -9.65496        -3.78823
   C       -5.52410       -10.33366        -4.73459
   C       -5.28563        -9.85813        -6.04062
   C       -4.39501        -8.82555        -6.11107
   S       -3.83727        -8.41266        -4.52675
   C       -3.89747        -8.11832        -7.31802
  Cl       -6.05677       -10.53192        -7.42494
   C       -4.68594       -12.41059        -2.55817
   C       -4.70134       -13.52151        -1.75938
   S       -4.79270       -13.11661        -0.06099
   C       -4.58341       -14.87153        -2.17690
   C       -4.55673       -15.99682        -1.36512
   O       -4.75230       -15.90049        -0.00896
   C       -6.10987       -16.00686         0.39199
   C       -4.31827       -17.18931        -2.08677
   O       -4.17282       -18.43701        -1.63162
   C       -3.97805       -18.66366        -0.24738
   C       -4.18195       -16.96826        -3.46662
   S       -4.37129       -15.27475        -3.84283
   C       -4.04757       -17.99941        -4.41090
   C       -3.72797       -17.90430        -5.74047
   C       -4.08232       -18.89176        -6.74892
   C       -4.46412       -20.19169        -6.54466
   C       -4.53787       -20.83574        -5.29187
   N       -4.62169       -21.43199        -4.31370
   C       -4.80410       -21.08796        -7.57948
   N       -5.09357       -21.86938        -8.36928
   C       -3.97441       -18.22481        -8.04217
   C       -3.43480       -16.93288        -7.84818
   C       -3.24836       -16.07410        -8.91774
   C       -3.60336       -16.51092       -10.18531
   C       -4.12285       -17.78246       -10.38102
   C       -4.31259       -18.65156        -9.31648
   C       -3.12441       -16.77827        -6.43613
   C       -2.18953       -15.92367        -5.91235
   C       -1.58849       -14.87552        -6.63592
   N       -1.08716       -13.99252        -7.17156
   C       -1.65600       -16.06924        -4.61447
   N       -1.16118       -16.20238        -3.58709
   H       -5.29757        -1.09950         7.73372
   H       -4.55871        -2.63652         9.49892
   H       -3.22274        -4.62557         8.96161
   H       -2.58020        -5.11737         6.63435
   H       -5.07238        -1.33081         2.25962
   H       -4.69523        -0.11777         0.48414
   H       -3.47680        -0.17507        -0.80405
   H       -3.14274        -0.96792         0.75757
   H       -4.93675        -2.65010        -2.79329
   H       -4.32039        -4.00587        -3.77776
   H       -3.25602        -3.21316        -2.58719
   H       -4.75656        -7.77058         1.75384
   H       -3.72154       -12.39455         2.21000
   H       -6.14100       -11.25179         6.30056
   H       -7.34763       -10.19830         5.53685
   H       -5.81435        -9.52646         6.08860
   H       -6.23038       -11.11224        -4.51310
   H       -3.00935        -8.61554        -7.71059
   H       -3.63440        -7.09120        -7.07820
   H       -4.66082        -8.12561        -8.09341
   H       -4.58626       -12.47399        -3.62642
   H       -6.72229       -15.22023        -0.05829
   H       -6.10793       -15.89031         1.47318
   H       -6.53165       -16.98089         0.12291
   H       -3.27294       -17.94794         0.17760
   H       -3.57380       -19.67234        -0.17817
   H       -4.92164       -18.61642         0.30177
   H       -4.31323       -18.97292        -4.01845
   H       -2.84974       -15.08290        -8.77285
   H       -3.47307       -15.85082       -11.02925
   H       -4.38819       -18.10327       -11.37685
   H       -4.71995       -19.63406        -9.48910
*
