# ORCA input file
# SCF done       -246.191376012482          0.000466684319
! CAM-B3LYP def2-SVP def2/J RIJCOSX Grid4 TightSCF
%maxcore 5000
%tddft
    Mode sTDDFT
    Ethresh 5.0
    maxcore 5000
end

%pal
  nprocs 6
  end
* xyz 0 1
   C       -3.08615         0.59905        -3.48570
   C       -2.11012         1.46434        -3.82377
   C       -0.98279         1.40132        -2.95180
   C        0.19673         2.16482        -2.99397
   C        0.41826         3.21866        -3.96558
   C        1.57553         3.51790        -4.62388
   C        1.45288         4.65164        -5.45670
   C        0.22150         5.23690        -5.43975
   S       -0.83020         4.36459        -4.37562
   C       -0.25460         6.43292        -6.17994
  Cl        2.76400         5.23458        -6.41007
   C        1.15827         1.87510        -2.03029
   C        0.98539         0.89689        -1.02255
   C       -0.20619         0.15126        -0.96417
   C       -1.15342         0.41643        -1.95132
   S       -2.70741        -0.36068        -2.09846
   C       -0.47148        -0.82293         0.07589
   C       -1.10190        -2.02777        -0.04310
   C       -1.25407        -2.69025         1.19446
   C       -0.75963        -2.00855         2.26711
   S       -0.07356        -0.50730         1.74487
   C       -0.76260        -2.39537         3.70078
  Cl       -2.00548        -4.23483         1.32204
   C        2.12116         0.80894        -0.17534
   C        3.11231         1.69132        -0.47706
   S        2.68710         2.68499        -1.85866
   C        4.39340         1.87403         0.16898
   C        5.16581         3.00539        -0.12409
   C        6.37671         3.18135         0.49789
   C        6.85336         2.22928         1.41306
   C        6.10117         1.10006         1.70259
   C        4.87931         0.93128         1.08262
   C        8.13032         2.68238         1.92117
   C        8.43805         3.92015         1.32750
   C        7.37843         4.30142         0.31756
   C        6.76337         5.67872         0.60417
   C        6.12382         5.75109         1.98608
   C        7.90506         4.20260        -1.13400
   C        9.05860         5.13139        -1.48919
   C        9.56257         4.61161         1.70696
   C       10.43968         4.05510         2.65088
   C       10.13883         2.79872         3.19445
   C        8.98824         2.11799         2.85336
   C       11.64870         4.72303         3.07351
   C       11.99973         5.99869         2.81673
   C       13.22916         6.57731         3.25536
   C       13.55621         7.86626         3.03470
   C       14.78115         8.53122         3.41184
   C       15.88735         7.83931         3.92962
   C       17.03809         8.52286         4.23745
   C       17.09727         9.92095         4.09160
   C       16.01088        10.61955         3.58561
   C       14.87478         9.91894         3.23682
   C       18.38347        10.38246         4.56581
   C       19.12260         9.27108         5.00259
   C       18.35116         7.98943         4.76589
   C       19.12456         7.19768         3.68454
   C       18.43064         5.95578         3.14076
   C       18.17357         7.17076         6.05229
   C       17.51457         7.97879         7.16458
   C       20.38654         9.43230         5.51279
   C       20.94998        10.71574         5.60064
   C       20.19449        11.81384         5.16775
   C       18.92319        11.65811         4.65491
   C       22.29164        10.83673         6.12066
   C       23.03056        11.96014         6.18690
   C       24.37137        12.01997         6.68023
   C       25.15221        11.04297         7.22656
   C       26.45427        11.47473         7.58158
   C       27.50302        10.71694         8.13720
   C       27.39345         9.29405         8.38968
   C       27.89665         8.58870         9.44455
   C       27.66267         7.20040         9.33732
   C       26.99596         6.82338         8.20921
   S       26.62972         8.21722         7.24914
   C       26.59206         5.46238         7.77356
  Cl       28.18479         6.08708        10.54347
   C       28.68570        11.40024         8.41266
   C       28.87799        12.77244         8.12909
   C       27.83856        13.52516         7.55511
   C       26.64388        12.85350         7.31449
   S       25.22019        13.55280         6.60105
   C       27.98764        14.92208         7.19388
   C       27.07605        15.92697         7.33875
   C       27.53180        17.15724         6.81603
   C       28.77573        17.11043         6.25932
   S       29.41838        15.50770         6.38766
   C       29.55237        18.19927         5.61402
  Cl       26.58075        18.59161         6.88461
   C       30.18474        13.20736         8.50058
   C       30.94488        12.21717         9.00807
   S       30.13106        10.69382         9.08567
   H       -4.02865         0.44459        -3.97329
   H       -2.17405         2.12597        -4.66732
   H        2.47782         2.94003        -4.55109
   H        0.55007         6.82454        -6.79730
   H       -0.57954         7.20907        -5.48753
   H       -1.09988         6.17860        -6.81875
   H       -1.42055        -2.45262        -0.97646
   H       -1.08236        -3.42967         3.79992
   H       -1.44585        -1.76237         4.26746
   H        0.23127        -2.28477         4.13127
   H        2.18686         0.10926         0.63612
   H        4.79004         3.73330        -0.82905
   H        6.46345         0.36119         2.40169
   H        4.29377         0.05116         1.29783
   H        6.01059         5.89374        -0.15728
   H        7.54107         6.44025         0.53285
   H        5.32158         5.02222         2.07761
   H        5.70956         6.74231         2.15679
   H        6.86117         5.54737         2.75976
   H        7.06580         4.40335        -1.80391
   H        8.22258         3.17033        -1.30457
   H        8.79407         6.17311        -1.32718
   H        9.30762         5.00821        -2.54126
   H        9.94293         4.89412        -0.90409
   H        9.77911         5.57973         1.28457
   H       10.81927         2.36734         3.91532
   H        8.75998         1.16404         3.30544
   H       12.32346         4.11895         3.66937
   H       11.34018         6.64788         2.25696
   H       13.90352         5.92019         3.78749
   H       12.83392         8.49212         2.52285
   H       15.82603         6.77372         4.08196
   H       16.05228        11.69220         3.46667
   H       14.02418        10.45066         2.83368
   H       20.08840         6.90993         4.11108
   H       19.32388         7.87822         2.85223
   H       18.19358         5.25270         3.93513
   H       19.09092         5.45547         2.43516
   H       17.51663         6.22060         2.61633
   H       19.15284         6.82119         6.38686
   H       17.55974         6.29463         5.83856
   H       18.11764         8.84826         7.41724
   H       17.39967         7.36734         8.05700
   H       16.53067         8.32397         6.85396
   H       20.96084         8.57985         5.84796
   H       20.61115        12.80647         5.23812
   H       18.35833        12.51810         4.32666
   H       22.73241         9.90998         6.46460
   H       22.63271        12.90157         5.83578
   H       24.80430        10.03974         7.38291
   H       28.38830         9.03437        10.28881
   H       26.89122         4.73519         8.52430
   H       27.06459         5.20670         6.82542
   H       25.51266         5.40675         7.63583
   H       26.12600        15.81394         7.82672
   H       29.01494        19.13927         5.71191
   H       29.70217        17.98795         4.55516
   H       30.53294        18.29925         6.07773
   H       30.52762        14.21968         8.39571
   H       31.95503        12.27685         9.36296
*
