# ORCA input file
# SCF done       -186.460228165236          0.000624626846
! CAM-B3LYP def2-SVP def2/J RIJCOSX Grid4 TightSCF
%maxcore 5000
%tddft
    Mode sTDDFT
    Ethresh 5.0
    maxcore 5000
end

%pal
  nprocs 6
  end
* xyz 0 1
   C       -6.23251         9.78378        -9.34195
   C       -5.03326         9.24506        -9.02177
   C       -4.51811         8.08486        -9.63121
   C       -5.28541         7.38717       -10.66631
   C       -6.50075         7.77651       -11.11685
   S       -7.32419         9.15959       -10.52883
   C       -4.47923         6.27889       -11.04506
   C       -3.29493         6.27351       -10.30737
   C       -2.46616         5.18710       -10.66588
   C       -3.03051         4.42004       -11.63631
   S       -4.58106         4.97405       -12.15905
   C       -3.30889         7.40926        -9.41190
   C       -2.32491         7.81728        -8.48263
   C       -1.15765         7.19268        -8.18673
   C       -0.23470         7.70195        -7.23925
   S       -0.51587         9.21533        -6.40717
   C        0.96566         9.11600        -5.49351
   C        1.62716         7.92879        -5.85599
   C        0.95180         7.15828        -6.82240
   N        2.84301         7.44145        -5.34651
   O        3.43022         8.08787        -4.48575
   O        3.26052         6.38719        -5.78194
   C        1.30529        10.16727        -4.60291
   S        2.84997        10.28500        -3.80551
   C        2.45578        11.81469        -3.09517
   C        1.15575        12.19163        -3.41415
   C        0.51513        11.27800        -4.26178
   S       -1.10885        11.50472        -4.89476
   C       -1.97748        12.72281        -3.94358
   O       -3.12743        12.89797        -4.23828
   C       -1.32728        13.54699        -2.86478
   O       -1.98675        14.26595        -2.16696
   S        0.43145        13.62692        -2.69372
   C        3.45513        12.44248        -2.30178
   C        3.48273        13.73016        -1.89828
   C        4.54265        14.25406        -1.09928
   O        4.51324        15.58997        -0.79609
   C        5.60950        15.79660        -0.03954
   C        6.28062        14.54203         0.09255
   N        5.55604        13.61262        -0.60148
   C        7.44824        14.40813         0.82515
   C        7.90477        15.58037         1.41035
   C        7.21608        16.82238         1.25444
   C        6.05075        16.97399         0.52946
   O        7.90673        17.75560         1.93905
   C        8.96653        17.07986         2.48078
   N        8.99652        15.81137         2.19595
   C        9.88654        17.80414         3.29191
   C       10.97619        17.23273         3.85291
   C       11.84962        17.94850         4.71156
   C       13.01879        17.50993         5.24763
   C       13.58994        18.18343         6.45019
   O       13.29838        19.27762         6.87252
   C       14.52128        17.19874         7.03192
   C       15.20622        17.25995         8.21155
   C       16.02206        16.17170         8.59242
   C       16.10908        15.03184         7.74023
   C       16.91596        13.94603         8.13230
   C       17.59797        14.00935         9.31557
   C       17.52737        15.12180        10.16566
   C       16.74825        16.18419         9.80123
   F       18.36843        12.97353         9.69183
   C       15.39575        14.99890         6.51924
   C       14.61831        16.06895         6.16739
   C       13.81070        16.32678         4.97826
   C       13.94993        15.70961         3.76484
   C       13.37616        16.19756         2.56970
   N       12.99394        16.59884         1.56538
   C       14.79017        14.59670         3.55015
   N       15.45308        13.68526         3.33443
   H       -6.60969        10.67187        -8.86387
   H       -4.45037         9.73830        -8.25676
   H       -7.03399         7.23585       -11.88261
   H       -1.50228         4.96595       -10.24660
   H       -2.62362         3.53886       -12.09267
   H       -2.53767         8.73598        -7.94793
   H       -0.88112         6.26510        -8.66161
   H        1.34986         6.22706        -7.18218
   H        4.29455        11.81477        -2.03290
   H        2.72211        14.44495        -2.16925
   H        7.96128        13.46945         0.93275
   H        5.53775        17.91356         0.42081
   H        9.67022        18.85492         3.42433
   H       11.14992        16.18301         3.66687
   H       11.51389        18.92067         5.05765
   H       15.12451        18.12808         8.84830
   H       16.99661        13.07468         7.50145
   H       18.08795        15.11478        11.08694
   H       16.67746        17.05211        10.43935
   H       15.47297        14.12159         5.89653
*
