# ORCA input file
# SCF done       -194.837373826486          0.000430334834
! CAM-B3LYP def2-SVP def2/J RIJCOSX Grid4 TightSCF
%maxcore 5000
%tddft
    Mode sTDDFT
    Ethresh 5.0
    maxcore 5000
end

%pal
  nprocs 6
  end
* xyz 0 1
   C       -4.10914        16.14912        -5.37786
   C       -4.42120        16.70015        -4.19465
   C       -5.35989        15.80455        -3.50503
   C       -5.86954        16.03745        -2.22155
   N       -6.28481        16.23798        -1.17031
   C       -5.62431        14.74139        -4.31011
   C       -4.85340        14.89933        -5.52736
   C       -4.76788        14.05568        -6.59823
   C       -5.53092        12.81402        -6.86266
   C       -4.92441        12.18255        -7.90877
   C       -3.82139        12.99926        -8.37391
   C       -3.75279        14.13524        -7.61744
   C       -2.98600        12.65613        -9.44695
   N       -2.31055        12.36864       -10.32890
   C       -6.73949        12.42405        -6.20749
   C       -7.18845        11.15130        -6.12813
   C       -8.43324        10.79330        -5.52144
   C       -9.56419        11.55480        -5.48263
   C      -10.62998        10.77659        -4.88954
   C      -11.93263        11.24894        -4.67656
   N      -12.99828        11.63905        -4.50573
   C      -10.15866         9.52988        -4.57837
   C       -8.75937         9.48519        -4.90442
   C       -7.87822         8.51376        -4.51179
   C       -8.22481         7.21401        -3.88841
   C       -7.07942         6.68970        -3.37186
   C       -5.98142         7.58521        -3.67279
   C       -6.45346         8.65628        -4.38134
   C       -4.65163         7.36398        -3.28845
   N       -3.56384         7.17574        -2.97496
   C       -9.51421         6.58970        -3.88600
   C       -9.96238         5.84937        -2.84861
   C      -11.22090         5.19536        -2.78040
   C      -11.82481         4.72496        -1.62630
   C      -13.07200         4.15972        -1.87807
   C      -13.41061         4.16466        -3.24339
   S      -12.21267         4.90964        -4.20513
   C      -14.68055         3.54796        -3.39318
   C      -15.15815         3.19391        -2.11936
   C      -14.16294         3.55899        -1.12633
   C      -14.23602         3.37963         0.22341
   C      -15.36107         2.79356         0.84147
   N      -16.27578         2.31705         1.34200
   C      -13.19218         3.76934         1.08930
   N      -12.34444         4.08675         1.79268
   C      -16.41507         2.58476        -2.15868
   C      -16.87268         2.42699        -3.44776
   S      -15.75623         3.09137        -4.63870
   C      -18.13342         1.86927        -3.84219
   C      -19.33370         2.13785        -3.26107
   C      -20.37065         1.46938        -4.02177
   C      -21.73601         1.51461        -3.70876
   N      -22.85499         1.56364        -3.45908
   C      -19.80371         0.81288        -5.08029
   C      -18.37797         0.97777        -4.99403
   C      -17.43054         0.23703        -5.65434
   C      -17.62362        -0.60912        -6.85755
   C      -16.53592        -1.43420        -6.95225
   C      -15.62089        -1.11792        -5.88582
   C      -16.13340        -0.08584        -5.13909
   C      -14.40245        -1.77268        -5.65713
   N      -13.40191        -2.30472        -5.47618
   C      -18.64850        -0.50984        -7.83814
   C      -19.39595         0.59429        -8.08763
   C      -20.41970         0.65382        -9.07632
   C      -21.15801        -0.38890        -9.56228
   C      -22.19724         0.13696       -10.41671
   C      -23.12554        -0.65652       -11.10666
   N      -23.87982        -1.31624       -11.66545
   C      -22.12251         1.50511       -10.43412
   C      -20.98549         1.89914        -9.64965
   C      -20.43691         3.15087        -9.59743
   C      -21.06809         4.41945       -10.02261
   C      -20.11688         5.38431        -9.97922
   C      -18.86249         4.78748        -9.53918
   C      -19.06693         3.46542        -9.27128
   C      -17.65152         5.47925        -9.40980
   N      -16.65905         6.04428        -9.29249
   C      -22.47735         4.60680       -10.29291
   C      -22.96060         5.53672       -11.11063
   H       -3.45818        16.55973        -6.12436
   H       -4.06835        17.62531        -3.77929
   H       -6.23465        13.89710        -4.05676
   H       -5.22395        11.26360        -8.37661
   H       -3.02458        14.91656        -7.71374
   H       -7.32120        13.21137        -5.74992
   H       -6.58603        10.34919        -6.53062
   H       -9.69234        12.54903        -5.86733
   H      -10.70810         8.76105        -4.07202
   H       -6.96601         5.74679        -2.87119
   H       -5.87540         9.50729        -4.68275
   H      -10.14134         6.72701        -4.75798
   H       -9.36244         5.78282        -1.95040
   H      -11.37036         4.81224        -0.65620
   H      -16.96011         2.23422        -1.30132
   H      -19.51409         2.76027        -2.40529
   H      -20.31731         0.17892        -5.77592
   H      -16.35144        -2.17163        -7.71076
   H      -15.70470         0.29892        -4.23445
   H      -18.74357        -1.36475        -8.49534
   H      -19.21931         1.49254        -7.51259
   H      -21.04644        -1.43106        -9.32879
   H      -22.72829         2.16031       -11.02886
   H      -20.23934         6.42971       -10.18972
   H      -18.30896         2.75740        -8.99790
   H      -23.15339         3.94960        -9.76155
   H      -22.31402         6.19211       -11.66926
   H      -24.01860         5.65987       -11.26223
*
