# ORCA input file
# SCF done       -189.016666123135          0.000550574264
! CAM-B3LYP def2-SVP def2/J RIJCOSX Grid4 TightSCF
%maxcore 5000
%tddft
    Mode sTDDFT
    Ethresh 5.0
    maxcore 5000
end

%pal
  nprocs 6
  end
* xyz 0 1
   C       -3.71838        -1.65272        -0.14382
   C       -4.64081        -2.50743         0.40276
   C       -4.48195        -3.90689         0.46678
   N       -4.40654        -5.04960         0.55054
   C       -5.88890        -2.11586         0.93205
   N       -6.93535        -1.88836         1.34654
   C       -2.48522        -2.04144        -0.81525
   C       -1.87806        -0.88140        -1.35853
   C       -0.70203        -0.92740        -2.06746
   C       -0.10058        -2.17536        -2.25763
   C       -0.71209        -3.32690        -1.70719
   C       -1.89820        -3.28113        -0.98421
   S        0.20775        -4.75615        -2.05914
   C        1.37647        -3.82008        -2.92533
   C        1.09902        -2.49835        -2.95289
   C       -2.68416         0.30531        -1.01719
   O       -2.37857         1.46222        -1.21429
   C       -3.85291        -0.21424        -0.25818
   C       -4.77523         0.56515         0.37425
   C       -5.03808         1.93226         0.08008
   C       -5.45099         2.81775         1.10514
   C       -5.72157         4.20347         0.84623
   N       -5.81876         5.06379         1.86024
   C       -5.85283         4.60345         3.08780
   C       -5.82218         3.19091         3.33114
   N       -5.55952         2.35193         2.36007
   C       -6.00810         2.69455         4.64612
   N       -6.15227         2.33322         5.72331
   C       -5.87752         5.51942         4.16684
   N       -5.88662         6.23463         5.06175
   C       -5.78587         4.71112        -0.48015
   C       -5.34471         3.84042        -1.50162
   C       -4.99408         2.46714        -1.22600
   N       -4.72718         1.79820        -2.34740
   S       -4.83069         2.79102        -3.59639
   N       -5.26971         4.12339        -2.80314
   C       -6.30854         5.99219        -0.74326
   C       -7.16926         6.78638         0.01942
   C       -7.42970         7.98556        -0.69101
   C       -6.70692         7.91292        -1.95617
   O       -6.62277         8.67875        -2.89571
   N       -6.07589         6.67940        -1.90865
   C       -8.38518         8.69692         0.04077
   O       -8.73538         7.94994         1.14236
   C       -8.04865         6.74674         1.16952
   O       -8.28807         5.90875         1.99477
   C       -9.08045         9.89433        -0.07526
   S      -10.37035        10.12326         1.07506
   C      -10.85777        11.62483         0.36496
   C       -9.97169        12.00010        -0.67268
   C       -8.97834        11.01464        -0.94049
   C       -8.02350        11.24464        -1.92781
   C       -8.01819        12.42882        -2.64827
   C       -7.01000        12.65419        -3.67766
   C       -6.34504        11.69661        -4.31646
   C       -8.97505        13.43600        -2.34734
   C       -8.96911        14.74524        -3.07653
   C       -9.92338        13.21208        -1.37766
   C      -12.03708        12.21938         0.85861
   C      -12.81634        13.14312         0.23041
   C      -14.02958        13.66278         0.75207
   C      -14.62821        13.41427         1.99441
   C      -15.84484        14.13061         2.06273
   C      -16.80742        14.20974         3.05264
   C      -17.92864        15.00547         2.80327
   C      -19.05976        15.27924         3.57518
   C      -19.91569        16.15248         2.85075
   C      -19.31444        16.42373         1.62656
   C      -18.07446        15.72720         1.55438
   C      -17.11940        15.65463         0.56917
   C      -15.99239        14.84991         0.81310
   C      -14.88208        14.55621         0.03341
   C      -21.19004        16.67873         3.27947
   C      -21.78303        16.41624         4.44075
   H       -0.26197        -0.02696        -2.46738
   H       -2.32148        -4.18483        -0.57837
   H        2.21274        -4.32656        -3.36679
   H        1.71279        -1.76456        -3.44340
   H       -5.34663         0.15811         1.19936
   H       -5.52714         6.29010        -2.66377
   H       -7.27903        10.49560        -2.12856
   H       -6.81610        13.68717        -3.93181
   H       -6.50585        10.64935        -4.12996
   H       -5.60982        11.94146        -5.06468
   H       -8.05192        15.29627        -2.87011
   H       -9.81042        15.35963        -2.76525
   H       -9.03436        14.58693        -4.15175
   H      -10.61693        13.99947        -1.12974
   H      -12.38238        11.81918         1.80275
   H      -12.55219        13.48048        -0.76114
   H      -14.24104        12.78607         2.77444
   H      -16.70306        13.67256         3.98470
   H      -19.25075        14.89046         4.55844
   H      -19.71604        17.05423         0.85405
   H      -17.22357        16.18905        -0.36464
   H      -14.68509        14.92827        -0.95629
   H      -21.67383        17.33555         2.56743
   H      -21.34293        15.76722         5.17821
   H      -22.73813        16.84264         4.69288
*
