# ORCA input file
# SCF done       -207.695204699545          0.000198717974
! CAM-B3LYP def2-SVP def2/J RIJCOSX Grid4 TightSCF
%maxcore 5000
%tddft
    Mode sTDDFT
    Ethresh 5.0
    maxcore 5000
end

%pal
  nprocs 6
  end
* xyz 0 1
   C        1.18057         1.90111         3.62897
   C        1.20298         1.63031         4.97237
   C        2.27334         0.98988         5.63093
   N        3.11494         0.47994         6.22228
   C        0.16165         1.91817         5.88013
   N       -0.64146         2.10030         6.68075
   C        2.21236         1.52476         2.67240
   C        1.76187         1.84988         1.37067
   C        2.51347         1.61442         0.24523
   C        3.77168         1.02729         0.41240
   C        4.21610         0.70883         1.71804
   C        3.45622         0.94825         2.85579
   S        5.80182        -0.00215         1.69733
   C        5.84388         0.13372        -0.04058
   C        4.73015         0.68351        -0.57991
  Br        7.35513        -0.46136        -0.97862
   C        0.41771         2.45977         1.44444
   O       -0.22684         2.86551         0.50278
   C        0.09646         2.53417         2.89391
   C       -0.90554         3.25993         3.46262
   C       -2.05117         3.85639         2.83871
   C       -2.57085         5.03323         3.41259
   C       -3.64804         5.64930         2.83335
   C       -4.26772         5.08815         1.69914
   C       -3.80120         3.89464         1.16329
   C       -2.69729         3.29187         1.72860
   C       -5.35975         5.94603         1.30234
   C       -5.41387         7.04060         2.18478
   C       -4.33798         6.92997         3.23926
   C       -4.94518         6.81776         4.65064
   C       -5.91921         5.65367         4.78611
   C       -3.37191         8.12815         3.18590
   C       -2.73055         8.31025         1.81543
   C       -6.34992         8.02989         2.02303
   C       -7.26517         7.95463         0.96035
   C       -7.21265         6.84233         0.10471
   C       -6.27307         5.84535         0.26093
   C       -8.25131         8.97583         0.70382
   C       -8.28301        10.18930         1.29717
   C       -9.20090        11.25205         1.07477
   S       -8.75302        12.80249         1.73620
   C      -10.19172        13.55058         1.10293
   C      -10.97341        12.61534         0.42571
   C      -10.42570        11.32655         0.41844
   C      -11.13721        10.17256        -0.21540
   C      -12.60993        10.49961        -0.45566
   C      -12.75280        11.84738        -1.16034
   C      -14.19121        12.10161        -1.59813
   C      -12.28240        12.95274        -0.21357
   C      -10.46771        14.91958         1.28206
   C       -9.65263        15.77592         1.95974
   C       -9.84614        17.16312         2.16620
   C      -10.93380        17.94391         1.69507
   C      -11.02560        19.36211         1.95197
   N      -12.07259        20.05461         1.49672
   C      -13.01508        19.44431         0.80890
   C      -12.91950        18.04682         0.54120
   N      -11.90152        17.34623         0.98503
   C      -13.91332        17.37403        -0.21097
   N      -14.71665        16.83077        -0.82196
   C      -14.12053        20.19058         0.33851
   N      -15.03146        20.76356        -0.05709
   C      -10.02792        20.08313         2.68473
   C       -8.95003        19.29362         3.15905
   C       -8.86855        17.87758         2.90545
   N       -7.77495        17.34102         3.44346
   S       -6.93150        18.48630         4.19247
   N       -7.91480        19.72339         3.86932
   C      -10.19416        21.46206         2.85964
   C       -9.42208        22.41907         3.48501
   C       -9.80320        23.78603         3.51486
   C       -8.93196        24.60824         4.16018
   C       -7.80938        23.92700         4.67960
   S       -7.90193        22.21260         4.32073
   C       -6.74794        24.46188         5.38176
   C       -6.54362        25.82261         5.73747
   C       -5.40499        26.05293         6.43099
   C       -4.61824        24.87997         6.67789
   S       -5.42904        23.47515         5.96472
   C       -3.45194        24.79627         7.33458
   H        2.14108         1.87431        -0.73330
   H        3.84159         0.69380         3.82889
   H        4.58860         0.84178        -1.63342
   H       -0.81911         3.46833         4.52344
   H       -2.09043         5.45361         4.28465
   H       -4.29166         3.44396         0.31408
   H       -2.34288         2.35546         1.33187
   H       -5.46204         7.75124         4.88292
   H       -4.13404         6.69679         5.37147
   H       -6.74870         5.76281         4.09072
   H       -6.31956         5.61832         5.79649
   H       -5.42114         4.70864         4.58117
   H       -2.59162         7.98172         3.93571
   H       -3.92253         9.03309         3.45102
   H       -2.15970         7.42742         1.53595
   H       -2.05804         9.16483         1.82834
   H       -3.48981         8.48170         1.05552
   H       -6.38548         8.85833         2.71314
   H       -7.92471         6.77883        -0.70599
   H       -6.24685         5.00488        -0.41626
   H       -8.97187         8.73387        -0.06213
   H       -7.50241        10.44234         2.00285
   H      -11.05155         9.29126         0.42487
   H      -10.65861         9.94017        -1.17295
   H      -13.13814        10.53700         0.49969
   H      -13.06153         9.70940        -1.05808
   H      -12.10819        11.84630        -2.04682
   H      -14.86276        12.05268        -0.74349
   H      -14.50768        11.35793        -2.32587
   H      -14.28477        13.08672        -2.04886
   H      -13.03299        13.09610         0.57136
   H      -12.20295        13.89737        -0.75604
   H      -11.38206        15.29239         0.84756
   H       -8.74214        15.38604         2.40003
   H      -11.10324        21.84265         2.40739
   H      -10.71662        24.11577         3.05141
   H       -9.07031        25.66872         4.27137
   H       -7.25150        26.58477         5.46435
   H       -5.08234        27.01599         6.78442
   H       -2.99274        25.67472         7.75244
   H       -2.94175        23.85945         7.46341
*
