# ORCA input file
# SCF done       -199.353401764457          0.000420036341
! CAM-B3LYP def2-SVP def2/J RIJCOSX Grid4 TightSCF
%maxcore 5000
%tddft
    Mode sTDDFT
    Ethresh 5.0
    maxcore 5000
end

%pal
  nprocs 6
  end
* xyz 0 1
   C       -7.17086        -1.26765        -0.68589
   C       -6.44423        -1.49574         0.47062
   C       -5.72055        -2.67197         0.73263
   N       -5.10071        -3.60617         0.98406
   C       -6.46439        -0.60477         1.54635
   N       -6.54049         0.07125         2.47920
   C       -7.47540        -2.24336        -1.71214
   C       -8.45992        -1.69274        -2.57137
   C       -8.98476        -2.38776        -3.63142
   C       -8.51449        -3.68728        -3.85805
   C       -7.52746        -4.22549        -2.99798
   C       -6.99787        -3.52515        -1.92227
   S       -7.08986        -5.84269        -3.46185
   C       -8.22683        -5.77554        -4.78283
   C       -8.89819        -4.60296        -4.87479
  Br       -8.41937        -7.25909        -5.91496
   C       -8.79629        -0.32083        -2.12888
   O       -9.59629         0.41979        -2.65587
   C       -7.89261        -0.05095        -0.98183
   C       -7.57343         1.16795        -0.44865
   C       -8.28116         2.40787        -0.48335
   C       -7.55018         3.59218        -0.24524
   C       -8.20247         4.79189        -0.14887
   C       -9.61054         4.82527        -0.19222
   C      -10.34087         3.67452        -0.46052
   C       -9.67680         2.47957        -0.62526
   C      -10.04397         6.15683         0.14632
   C       -8.91174         6.95930         0.38375
   C       -7.64871         6.18943         0.04661
   C       -6.55709         6.18598         1.12572
   C       -5.87299         7.51551         1.42370
   C       -7.16375         6.73789        -1.31934
   C       -5.96217         6.01780        -1.91621
   C       -9.06909         8.26613         0.78078
   C      -10.35710         8.78673         0.96357
   C      -11.46936         7.98509         0.67908
   C      -11.32484         6.67369         0.28180
   C      -10.58878        10.13911         1.43355
   C       -9.77672        10.83767         2.24062
   C      -10.07747        12.16216         2.76324
   C       -9.10405        13.07394         3.21057
   N       -7.71846        12.99619         3.23454
   C       -6.91987        12.22629         2.30255
   C       -7.35155        12.45535         0.85497
   C       -7.23096        14.12924         3.86255
   C       -8.30675        14.99250         4.16936
   C       -9.50297        14.30596         3.78117
   C      -10.83616        14.66949         3.88877
   C      -11.78950        13.78136         3.43460
   C      -11.41002        12.56245         2.89644
   C       -8.10415        16.25506         4.70574
   C       -6.80348        16.66706         4.92794
   C       -5.74877        15.80140         4.69870
   C       -5.91927        14.48949         4.23067
   C       -4.76497        13.63138         4.30425
   C       -4.75699        12.29372         4.54102
   C       -3.57100        11.55917         4.73354
   C       -3.51030        10.19927         4.88976
   C       -2.34981         9.41788         5.10976
   C       -2.57667         8.07616         5.16543
   C       -3.92785         7.71323         4.98252
   S       -4.91689         9.14827         4.78050
   C       -4.45727         6.44203         4.87758
   C       -3.76540         5.20942         4.88964
   C       -4.54922         4.13627         4.59744
   C       -5.90774         4.44903         4.33630
   S       -6.15763         6.17625         4.57448
   C       -6.85147         3.56078         3.89481
   C       -8.19798         3.79927         3.54837
   C       -8.98124         5.00169         3.63772
   C      -10.25872         4.78645         3.20170
   C      -10.36907         3.42839         2.80825
   C       -9.06216         2.83062         3.02645
   N       -8.89817         1.52738         2.71658
   C       -9.93779         0.83494         2.22849
   N      -11.13145         1.32041         2.03609
   C      -11.35978         2.61163         2.32070
   H       -9.73859        -1.94770        -4.26531
   H       -6.24528        -3.97248        -1.29403
   H       -9.63460        -4.39130        -5.62846
   H       -6.62602         1.21973         0.08081
   H       -6.47631         3.52621        -0.14410
   H      -11.41771         3.70866        -0.52027
   H      -10.23945         1.58023        -0.80827
   H       -5.79450         5.46615         0.82341
   H       -7.01250         5.80913         2.04173
   H       -5.55850         8.02158         0.51513
   H       -4.98596         7.33435         2.02711
   H       -6.52279         8.17315         1.99251
   H       -6.93243         7.79789        -1.20133
   H       -8.00066         6.66574        -2.01934
   H       -5.09340         6.08976        -1.26752
   H       -5.70773         6.47017        -2.87253
   H       -6.18797         4.96868        -2.08898
   H       -8.21872         8.91113         0.93041
   H      -12.45859         8.40432         0.79691
   H      -12.18941         6.05952         0.07918
   H      -11.52796        10.57334         1.11633
   H       -8.85697        10.38284         2.57633
   H       -6.95489        11.16094         2.54924
   H       -5.88633        12.55581         2.40896
   H       -8.35835        12.08741         0.67549
   H       -6.66834        11.93558         0.18791
   H       -7.32360        13.51782         0.62248
   H      -11.11258        15.61467         4.32953
   H      -12.83896        14.02227         3.51430
   H      -12.18554        11.87276         2.60217
   H       -8.94147        16.89847         4.92670
   H       -6.60533        17.65644         5.31192
   H       -4.74661        16.12387         4.94290
   H       -3.81009        14.14453         4.30353
   H       -5.68745        11.74774         4.61972
   H       -2.63359        12.10020         4.75314
   H       -1.38222         9.87636         5.21527
   H       -1.80903         7.33939         5.32213
   H       -2.71022         5.15250         5.08847
   H       -4.19236         3.12291         4.53577
   H       -6.50372         2.54136         3.77328
   H       -8.61334         5.93783         4.01371
   H      -11.04958         5.50994         3.16120
   H       -7.97908         1.07153         2.82360
   H       -9.76800        -0.20436         1.98649
   H      -12.36972         2.95461         2.14408
*
