# ORCA input file
# SCF done       -206.778053887924          0.000849902576
! CAM-B3LYP def2-SVP def2/J RIJCOSX Grid4 TightSCF
%maxcore 5000
%tddft
    Mode sTDDFT
    Ethresh 5.0
    maxcore 5000
end

%pal
  nprocs 6
  end
* xyz 0 1
   C       -6.99034        -2.39972        -3.83678
   C       -7.13926        -3.60468        -3.20035
   C       -6.83612        -4.85290        -3.78136
   N       -6.60772        -5.89602        -4.20274
   C       -7.60909        -3.74700        -1.87877
   N       -7.98631        -3.90491        -0.80620
   C       -6.49497        -2.20605        -5.19729
   C       -6.46228        -0.81641        -5.48458
   C       -6.04064        -0.31936        -6.69429
   C       -5.63574        -1.23596        -7.67043
   C       -5.67368        -2.61996        -7.37613
   C       -6.09653        -3.12246        -6.15079
   S       -5.13800        -3.57511        -8.72346
   C       -4.87416        -2.12379        -9.65308
   C       -5.17037        -0.98079        -8.98907
  Br       -4.23702        -2.25480       -11.41181
   C       -6.94580        -0.07865        -4.31100
   O       -7.05230         1.13599        -4.18073
   C       -7.28247        -1.08925        -3.30315
   C       -7.80636        -0.74389        -2.08226
   N       -8.02361         0.53826        -1.76832
   C       -8.58980         0.99995        -0.62182
   S       -9.21453        -0.10174         0.57105
   C       -9.78235         1.24985         1.49329
   N      -10.44308         0.99178         2.70306
   O      -10.84513         1.94706         3.33947
   O      -10.56495        -0.17656         3.02313
   C       -9.51119         2.45928         0.91372
   C       -8.80622         2.34326        -0.30098
   C       -8.41156         3.50690        -1.05911
   C       -7.36706         3.61414        -1.89783
   C       -6.98967         4.80781        -2.62306
   C       -5.72478         4.84506        -3.23043
   C       -5.31665         5.97882        -3.88848
   C       -6.16470         7.09698        -3.97419
   C       -7.43102         7.06067        -3.40673
   C       -7.83053         5.92269        -2.73742
   C       -5.47325         8.14754        -4.68549
   C       -4.19454         7.68092        -5.04278
   C       -4.00104         6.25546        -4.57800
   C       -2.81843         6.14268        -3.59776
   C       -2.95669         7.06753        -2.39438
   C       -3.77756         5.30051        -5.76557
   C       -4.92098         5.33049        -6.77260
   C       -3.30626         8.49610        -5.69698
   C       -3.67418         9.81830        -6.00431
   C       -4.96222        10.25980        -5.65488
   C       -5.86123         9.44194        -5.00529
   C       -2.78153        10.75968        -6.62334
   C       -1.51290        10.51270        -7.02733
   C       -0.61696        11.47813        -7.56843
   C        0.68799        11.07657        -7.95065
   C        1.67429        12.00138        -8.44461
   N        2.88713        11.56319        -8.79314
   C        3.17221        10.28351        -8.68039
   C        2.19741         9.36482        -8.18125
   N        1.00174         9.77396        -7.83431
   C        2.51184         7.98867        -8.05360
   N        2.78714         6.88032        -7.95909
   C        4.45745         9.82873        -9.05739
   N        5.49103         9.43032        -9.35304
   C        1.40913        13.40216        -8.56631
   C        0.09066        13.78994        -8.21977
   C       -0.90075        12.85407        -7.73834
   N       -2.05991        13.46347        -7.48595
   S       -1.93063        15.03172        -7.81569
   N       -0.39393        15.02298        -8.29447
   C        2.44581        14.24275        -8.99186
   C        2.53375        15.61171        -9.13209
   C        3.73518        16.24768        -9.54387
   C        3.67712        17.60609        -9.58532
   C        2.41536        18.11818        -9.20945
   S        1.30697        16.81493        -8.82111
   C        2.02951        19.44047        -9.12765
   C        2.81745        20.59167        -9.40389
   C        2.17012        21.76565        -9.22552
   C        0.81024        21.62870        -8.79061
   S        0.42107        19.90736        -8.63152
   C       -0.07144        22.60473        -8.53066
   H       -6.02612         0.74258        -6.88374
   H       -6.10729        -4.18513        -5.97551
   H       -5.06670         0.00193        -9.41138
   H       -8.06032        -1.48421        -1.33454
   H       -7.78612         1.21287        -2.51518
   H       -9.79741         3.39321         1.36304
   H       -9.01610         4.37859        -0.85110
   H       -6.68502         2.78405        -2.02447
   H       -5.07862         3.98161        -3.16200
   H       -8.09297         7.91023        -3.48339
   H       -8.81765         5.89229        -2.30278
   H       -1.89683         6.38005        -4.13279
   H       -2.74663         5.10871        -3.25378
   H       -3.00477         8.10692        -2.71158
   H       -2.10181         6.94953        -1.73265
   H       -3.86041         6.83800        -1.83373
   H       -3.66124         4.28529        -5.38002
   H       -2.84677         5.57744        -6.26475
   H       -5.85233         5.01527        -6.30692
   H       -4.70528         4.66025        -7.60167
   H       -5.05734         6.33405        -7.16967
   H       -2.32505         8.13263        -5.95965
   H       -5.24253        11.27437        -5.89930
   H       -6.84313         9.80487        -4.74028
   H       -3.16834        11.76121        -6.75039
   H       -1.08727         9.52317        -6.94313
   H        3.35760        13.70580        -9.22910
   H        4.60991        15.67112        -9.78916
   H        4.49902        18.23847        -9.86949
   H        3.84019        20.50579        -9.72506
   H        2.60141        22.73805        -9.38343
   H        0.20470        23.63846        -8.64134
   H       -1.07415        22.38963        -8.20971
*
