# ORCA input file
# SCF done       -198.955989663634          0.000563961953
! CAM-B3LYP def2-SVP def2/J RIJCOSX Grid4 TightSCF
%maxcore 5000
%tddft
    Mode sTDDFT
    Ethresh 5.0
    maxcore 5000
end

%pal
  nprocs 6
  end
* xyz 0 1
   C      -14.43191         2.40871        -3.20848
   C      -15.37650         2.00596        -2.29917
   C      -16.75657         2.26255        -2.42226
   N      -17.88915         2.44468        -2.46960
   C      -15.07959         1.30492        -1.11299
   N      -14.88356         0.74291        -0.13129
   C      -14.68979         3.17079        -4.42849
   C      -13.45340         3.45582        -5.06359
   C      -13.37065         4.15526        -6.24292
   C      -14.56432         4.59084        -6.82850
   C      -15.79255         4.30031        -6.18923
   C      -15.87614         3.59613        -4.99316
   S      -17.14299         4.92245        -7.08681
   C      -16.05491         5.55543        -8.29325
   C      -14.74675         5.31523        -8.03817
  Br      -16.74796         6.47380        -9.77419
   C      -12.36523         2.86774        -4.26971
   O      -11.16244         2.91455        -4.50221
   C      -13.00753         2.18925        -3.13979
   C      -12.28517         1.42866        -2.25127
   N      -10.95714         1.33630        -2.36362
   C      -10.13375         0.51280        -1.66632
   S      -10.74643        -0.68196        -0.56393
   C       -9.13248        -1.28171        -0.35413
   N       -8.94674        -2.35417         0.53021
   O       -7.81534        -2.77258         0.68138
   O       -9.94279        -2.78698         1.08183
   C       -8.19479        -0.61178        -1.09265
   C       -8.74603         0.44749        -1.83962
   C       -7.96860         1.33223        -2.66635
   C       -8.25247         2.64025        -2.85017
   C       -7.53590         3.56575        -3.66698
   C       -6.62104         3.22897        -4.68872
   C       -5.92993         4.23657        -5.45427
   N       -5.09062         3.88107        -6.42570
   C       -4.89321         2.60206        -6.68219
   C       -5.57536         1.60332        -5.92710
   N       -6.40955         1.92997        -4.96908
   C       -5.36334         0.23000        -6.21021
   N       -5.16765        -0.87136        -6.45698
   C       -4.00395         2.24045        -7.72021
   N       -3.28694         1.92215        -8.55628
   C       -6.08883         5.64231        -5.20152
   C       -7.04425         5.96569        -4.20338
   C       -7.76005         4.94820        -3.47470
   N       -8.61684         5.47541        -2.60048
   S       -8.54131         7.08131        -2.68536
   N       -7.40964         7.18500        -3.83206
   C       -5.31347         6.53958        -5.93523
   C       -5.13291         7.90887        -5.83009
   C       -4.24246         8.61645        -6.66960
   C       -4.10800         9.94221        -6.36689
   C       -4.88702        10.33467        -5.26591
   S       -5.83097         8.99471        -4.65693
   C       -4.93852        11.58862        -4.66431
   C       -4.25073        12.75869        -5.03411
   C       -4.48936        13.81895        -4.20614
   C       -5.37295        13.53836        -3.14079
   S       -5.91110        11.87277        -3.24409
   C       -5.71406        14.44158        -2.15432
   C       -6.56756        14.25370        -1.07017
   S       -7.49362        12.78150        -0.94228
   C       -8.29112        13.28191         0.49421
   C       -7.79903        14.51994         0.92984
   C       -6.84044        15.10561         0.03323
   C       -6.24919        16.34919         0.38445
   C       -5.32966        17.15001        -0.45187
   O       -5.34452        17.25702        -1.65533
   O       -4.45155        17.84402         0.28935
   C       -6.57494        16.91895         1.60377
   C       -7.46187        16.32370         2.49268
   C       -8.07832        15.13311         2.18113
   O       -8.90269        14.51826         3.05075
   C       -9.32868        12.41497         0.98898
   C      -10.47928        12.79701         1.53826
   H      -12.41615         4.35543        -6.70392
   H      -16.83627         3.39621        -4.54774
   H      -13.94280         5.63275        -8.67678
   H      -12.75507         0.87344        -1.44931
   H      -10.54729         1.88485        -3.14192
   H       -7.14997        -0.86405        -1.07432
   H       -7.08434         0.90635        -3.11528
   H       -9.04460         3.10797        -2.27862
   H       -4.71134         6.06359        -6.70118
   H       -3.71682         8.12188        -7.46735
   H       -3.46603        10.62132        -6.89842
   H       -3.60065        12.79389        -5.88927
   H       -4.05478        14.79539        -4.32560
   H       -5.26845        15.41804        -2.26209
   H       -3.90186        18.39779        -0.28773
   H       -6.12212        17.85822         1.87723
   H       -7.66204        16.79744         3.44361
   H       -8.94706        15.01932         3.87626
   H       -9.15901        11.36426         0.78617
   H      -10.72633        13.83079         1.69622
   H      -11.21321        12.07113         1.84059
*
