# ORCA input file
# SCF done       -191.188436995930          0.000495858731
! CAM-B3LYP def2-SVP def2/J RIJCOSX Grid4 TightSCF
%maxcore 5000
%tddft
    Mode sTDDFT
    Ethresh 5.0
    maxcore 5000
end

%pal
  nprocs 6
  end
* xyz 0 1
   C       -6.87618        -1.19061         1.95341
   C       -7.80009        -1.66914         2.84735
   C       -7.79966        -2.98489         3.35394
   N       -7.84711        -4.03944         3.80581
   C       -8.89185        -0.93869         3.36106
   N       -9.81568        -0.42456         3.81061
   C       -5.80599        -1.96775         1.34537
   C       -5.16248        -1.16664         0.37180
   C       -4.10859        -1.62024        -0.38332
   C       -3.66773        -2.92997        -0.16811
   C       -4.31313        -3.72224         0.81119
   C       -5.37822        -3.26324         1.57511
   S       -3.60470        -5.30587         0.91975
   C       -2.47004        -4.88818        -0.33690
   C       -2.61109        -3.62887        -0.81371
  Br       -1.20563        -6.15432        -0.89988
   C       -5.79394         0.16904         0.32734
   O       -5.45473         1.08747        -0.38579
   C       -6.84102         0.14642         1.38200
   C       -7.49528         1.22537         1.89392
   C       -7.58290         2.55808         1.36960
   C       -7.71028         3.61700         2.28959
   C       -7.76917         4.90678         1.83237
   C       -7.75610         5.17608         0.44979
   C       -7.69389         4.13494        -0.46674
   C       -7.59975         2.83870        -0.00461
   C       -7.81468         6.60865         0.26112
   C       -7.84922         7.22460         1.52461
   C       -7.84926         6.19012         2.62483
   C       -9.14426         6.25980         3.45647
   C      -10.40195         6.10027         2.61106
   C       -6.63065         6.35397         3.55168
   C       -5.30577         6.30269         2.80004
   C       -7.86695         8.59283         1.63865
   C       -7.85105         9.38025         0.47989
   C       -7.86246         8.75506        -0.77215
   C       -7.83556         7.37978        -0.89269
   C       -7.80806        10.82945         0.54998
   C       -7.31227        11.49979         1.59060
   S       -7.20677        13.25016         1.65640
   C       -6.80534        13.42358         3.37065
   C       -5.75041        14.16146         3.80849
   S       -5.59805        14.13644         5.51914
   C       -6.97923        13.12576         5.65872
   C       -7.53120        12.83254         4.45093
   S       -8.98007        11.82925         4.27974
   C       -9.95444        12.92671         3.33408
   C      -11.10557        12.56665         2.73339
   C      -11.89608        13.48854         2.01249
   C      -13.10373        13.20939         1.43492
   C      -13.92731        14.11914         0.72280
   C      -15.09931        13.58888         0.28171
   C      -15.27757        12.22686         0.61444
   S      -13.88609        11.63475         1.50295
   C      -16.36776        11.42985         0.33080
   C      -17.54943        11.79612        -0.35332
   C      -18.46117        10.79242        -0.45556
   C      -18.06436         9.56513         0.13708
   S      -16.45639         9.75463         0.82809
   C      -18.83173         8.43127         0.17094
   C      -18.54582         7.16771         0.73171
   C      -19.44025         6.09581         0.74696
   C      -18.82453         4.99245         1.39076
   C      -19.27271         3.72235         1.66963
   C      -18.39392         2.85000         2.33612
   C      -18.54231         1.53711         2.75290
   C      -17.33074         1.10703         3.38589
   C      -16.43669         2.15932         3.35765
   C      -17.05680         3.27616         2.71143
   C      -16.60727         4.53832         2.43876
   C      -17.49019         5.41974         1.77472
   C      -17.33475         6.73091         1.37491
   C      -17.06850        -0.19130         3.95829
   C      -17.93055        -1.20323         4.01034
   H       -3.64020        -0.98445        -1.11828
   H       -5.83237        -3.90315         2.31298
   H       -1.99625        -3.20788        -1.58816
   H       -7.98250         1.09310         2.85386
   H       -7.72406         3.39957         3.34824
   H       -7.71327         4.33366        -1.52743
   H       -7.56945         2.02491        -0.70950
   H       -9.17508         7.22206         3.97190
   H       -9.11509         5.47429         4.21454
   H      -10.46348         6.88552         1.86090
   H      -11.28489         6.15940         3.24302
   H      -10.40598         5.13826         2.10318
   H       -6.65266         5.56183         4.30307
   H       -6.71572         7.30967         4.07331
   H       -5.18965         5.35007         2.28782
   H       -4.47671         6.42331         3.49367
   H       -5.25347         7.09742         2.05897
   H       -7.91150         9.06260         2.60966
   H       -7.86936         9.37000        -1.66065
   H       -7.82619         6.91531        -1.86732
   H       -8.15827        11.37322        -0.31675
   H       -6.89719        11.00981         2.45597
   H       -5.05247        14.71229         3.21125
   H       -7.31986        12.80484         6.62224
   H       -9.58029        13.93727         3.29221
   H      -11.45558        11.54583         2.80635
   H      -11.52428        14.50061         1.91734
   H      -13.62304        15.13936         0.56767
   H      -15.84148        14.13870        -0.26895
   H      -17.69476        12.78680        -0.74516
   H      -19.41780        10.89012        -0.93874
   H      -19.80701         8.51942        -0.29446
   H      -20.43550         6.10382         0.34166
   H      -20.26492         3.39653         1.39031
   H      -19.42217         0.93399         2.62243
   H      -15.43686         2.15295         3.75168
   H      -15.61493         4.86618         2.71496
   H      -16.45389         7.32935         1.51418
   H      -16.07545        -0.31297         4.37283
   H      -18.92964        -1.12929         3.61597
   H      -17.66523        -2.14586         4.45668
*
