# ORCA input file
# SCF done       -172.728955186099          0.000386976708
! CAM-B3LYP def2-SVP def2/J RIJCOSX Grid4 TightSCF
%maxcore 5000
%tddft
    Mode sTDDFT
    Ethresh 5.0
    maxcore 5000
end

%pal
  nprocs 6
  end
* xyz 0 1
   C        1.11059         2.23074        -0.68557
   C        0.29428         1.22669        -0.98633
   C       -0.30526         1.24737        -2.30997
   C        0.10171         2.23835        -3.11143
   S        1.27916         3.26374        -2.14629
   O        0.69131         4.57024        -1.99475
   O        2.63526         3.24542        -2.62502
   C       -0.32904         2.84419        -4.31618
   C       -1.60825         3.24370        -4.68516
   N       -2.82656         2.80286        -4.14077
   O       -3.82531         3.44696        -4.40179
   O       -2.81537         1.80019        -3.44398
   C       -1.50980         4.27916        -5.67791
   C       -0.19728         4.54844        -5.90128
   C        0.59471         3.64266        -5.11422
   C        1.94838         3.39894        -5.23193
   C        2.59316         2.12865        -5.16308
   C        3.84682         2.25104        -5.68686
   C        4.07696         3.62204        -6.03549
   N        5.31631         4.10917        -6.48910
   O        5.46305         5.31567        -6.58802
   O        6.17482         3.28758        -6.75847
   C        2.94110         4.36684        -5.73066
   C        2.77173         5.76067        -5.69853
   C        1.96162         6.37266        -4.77492
   C        1.76898         7.76250        -4.73160
   N        1.23122         8.43587        -3.66681
   C        0.90930         7.87423        -2.37378
   C        2.16590         7.63168        -1.54346
   C        1.16166         9.81894        -3.89822
   O        0.74112        10.62197        -3.09459
   C        1.67437         9.98452        -5.25074
   C        2.03612         8.71907        -5.73026
   C        2.49668         8.86447        -7.09931
   O        2.87265         8.05925        -7.91988
   N        2.40963        10.24942        -7.34290
   C        2.76107        10.79813        -8.63128
   C        1.52739        11.06098        -9.49126
   C        1.91708        10.93622        -6.26182
   C        1.73130        12.32909        -6.23007
   C        1.26255        12.99041        -5.12673
   C        1.07750        14.38553        -5.05066
   C        0.65421        15.07660        -3.92626
   C        0.59250        16.46477        -4.21984
   C        1.00334        16.59900        -5.63215
   C        1.29292        15.36218        -6.11099
   C        1.09277        17.77996        -6.37847
   N        1.17795        18.72412        -7.02743
   C        0.23647        17.49634        -3.37778
   C        0.17160        18.88461        -3.69500
   C       -0.22064        19.58094        -2.57279
   C       -0.41715        18.62697        -1.48883
   C       -0.14943        17.38093        -1.95706
   C       -0.22240        16.20156        -1.20528
   N       -0.28594        15.24797        -0.56903
   C       -0.41838        20.96930        -2.41030
   C       -0.30694        22.00583        -3.26352
   C       -0.59727        23.30838        -2.70404
   C       -0.93875        23.33103        -1.41776
   S       -0.91717        21.64131        -0.79797
   O       -2.23847        21.20268        -0.44691
   O        0.12454        21.46164         0.17365
   H        1.65938         2.42123         0.21249
   H        0.03867         0.42899        -0.30649
   H       -1.02928         0.50225        -2.59368
   H       -2.36444         4.73231        -6.14286
   H        0.20580         5.22367        -6.63098
   H        2.11619         1.22202        -4.84406
   H        4.57882         1.47653        -5.82061
   H        3.38757         6.35667        -6.36237
   H        1.51432         5.77986        -3.98789
   H        0.36167         6.93740        -2.49640
   H        0.26848         8.60623        -1.87568
   H        2.81300         6.90584        -2.03041
   H        1.88096         7.23759        -0.57309
   H        2.71347         8.56073        -1.40105
   H        3.39236        10.04907        -9.11693
   H        3.34487        11.71189        -8.49210
   H        0.98948        10.13184        -9.66168
   H        1.83002        11.46666       -10.45241
   H        0.85405        11.76627        -9.00883
   H        1.98788        12.88626        -7.11914
   H        1.01508        12.42494        -4.23739
   H        0.41421        14.63314        -2.97983
   H        1.62056        15.14170        -7.10978
   H        0.39338        19.30558        -4.65511
   H       -0.72328        18.90360        -0.49776
   H       -0.02446        21.90948        -4.29978
   H       -0.52815        24.18362        -3.33170
   H       -1.19231        24.16773        -0.80088
*
