# ORCA input file
# SCF done       -164.967065985797          0.000863156307
! CAM-B3LYP def2-SVP def2/J RIJCOSX Grid4 TightSCF
%maxcore 5000
%tddft
    Mode sTDDFT
    Ethresh 5.0
    maxcore 5000
end

%pal
  nprocs 6
  end
* xyz 0 1
   C        1.31522         0.58974        -4.14778
   C        0.05183         0.81079        -3.68407
   F       -0.51071         2.01975        -3.63189
   C       -0.60031        -0.36799        -3.26583
   F       -1.84306        -0.37871        -2.78351
   C        0.17479        -1.50209        -3.41188
   S        1.72414        -1.06816        -4.07925
   C       -0.14782        -2.85311        -3.10444
   C       -1.31479        -3.35361        -2.57491
   C       -1.20415        -4.77106        -2.48605
   C        0.14867        -5.11577        -2.96561
   C        0.76760        -3.96324        -3.32731
   C        0.75468        -6.37885        -2.94938
   N        1.31209        -7.38186        -2.90666
   C       -2.16393        -5.66925        -2.07438
   C       -2.11249        -7.08313        -2.18356
   C       -3.26624        -7.62867        -1.64518
   C       -4.08985        -6.52740        -1.16726
   C       -3.45562        -5.35645        -1.44240
   C       -3.95591        -4.08807        -1.12500
   N       -4.40315        -3.06939        -0.84100
   C       -3.52917        -9.02133        -1.63954
   N       -4.42849        -9.70746        -0.86548
   C       -5.31620        -9.19179         0.14991
   C       -6.69283        -8.86276        -0.42307
   C       -4.39090       -11.09532        -1.11694
   O       -5.08569       -11.89490        -0.52688
   C       -3.38857       -11.24645        -2.14974
   C       -2.87342        -9.96966        -2.44044
   C       -1.90646       -10.10864        -3.51670
   O       -1.25030        -9.30015        -4.13348
   N       -1.88266       -11.49084        -3.77791
   C       -0.97820       -12.04712        -4.75758
   C        0.25998       -12.65694        -4.10656
   C       -2.75358       -12.18675        -2.97846
   C       -2.91608       -13.58303        -3.05403
   C       -3.81321       -14.27666        -2.29339
   C       -4.00906       -15.68171        -2.31412
   C       -3.23197       -16.63382        -3.02724
   C       -3.52253       -18.04698        -2.96193
   N       -2.78507       -18.91034        -3.67264
   C       -1.79715       -18.48305        -4.41649
   C       -1.48521       -17.08740        -4.45279
   N       -2.19802       -16.22209        -3.77069
   C       -0.39962       -16.59581        -5.21961
   N        0.47080       -16.19470        -5.84681
   C       -1.03485       -19.40848        -5.17234
   N       -0.38936       -20.11782        -5.79805
   C       -4.56314       -18.58890        -2.17106
   C       -5.36959       -17.64402        -1.50520
   C       -5.08384       -16.22733        -1.57099
   N       -5.97940       -15.51602        -0.88854
   S       -7.06479       -16.50395        -0.25020
   N       -6.47363       -17.88423        -0.79684
   C       -4.75972       -20.00431        -2.11600
   C       -5.48182       -20.76655        -1.21446
   F       -6.07871       -20.30471        -0.11683
   C       -5.46821       -22.14436        -1.51567
   F       -6.10303       -23.05471        -0.76978
   C       -4.75211       -22.44317        -2.63448
   S       -4.03337       -21.04469        -3.31214
   H        2.00955         1.31524        -4.51961
   H       -2.18602        -2.79051        -2.30480
   H        1.76668        -3.85789        -3.70806
   H       -1.31232        -7.63221        -2.63778
   H       -5.05937        -6.60563        -0.71517
   H       -4.85492        -8.32304         0.62326
   H       -5.42397        -9.98387         0.89726
   H       -6.61990        -8.15766        -1.24849
   H       -7.32325        -8.43518         0.35172
   H       -7.16176        -9.77212        -0.79041
   H       -0.68118       -11.21408        -5.40041
   H       -1.50534       -12.79008        -5.36176
   H        0.81519       -11.88997        -3.57236
   H        0.90082       -13.08464        -4.87205
   H       -0.01364       -13.44291        -3.40624
   H       -2.29669       -14.11985        -3.75459
   H       -4.46179       -13.74228        -1.60978
   H       -4.59098       -23.41227        -3.06098
*
