# ORCA input file
# SCF done       -162.246159760828          0.000461994184
! CAM-B3LYP def2-SVP def2/J RIJCOSX Grid4 TightSCF
%maxcore 5000
%tddft
    Mode sTDDFT
    Ethresh 5.0
    maxcore 5000
end

%pal
  nprocs 6
  end
* xyz 0 1
   C        0.11613        -1.54322         1.80997
   C       -0.84883        -1.18474         0.82937
   C       -0.50198        -0.27896        -0.15413
   C        0.78959         0.27553        -0.18010
   C        1.74758        -0.09869         0.80301
   C        1.37471        -1.02384         1.80065
   N        2.99369         0.41668         0.78785
   C        3.27316         1.26887        -0.16124
   C        2.32152         1.64846        -1.13314
   N        1.11017         1.16637        -1.14445
   C       -2.16869        -1.77449         0.90293
   S       -2.60798        -2.66363         2.34036
   C       -4.20172        -3.05760         1.75398
   C       -4.36894        -2.50980         0.48995
   C       -3.23259        -1.78799         0.01837
   C       -3.49921        -1.27064        -1.33009
   O       -2.78626        -0.61912        -2.05308
   C       -4.90578        -1.71742        -1.68945
   C       -5.43543        -2.50260        -0.50596
   O       -6.53464        -3.00806        -0.44834
   C       -5.02715        -3.84673         2.59311
   C       -6.28264        -4.26006         2.27755
   C       -7.05193        -5.07700         3.14035
   N       -8.30821        -5.53836         2.82028
   C       -9.01996        -5.30988         1.58505
   C       -8.51993        -6.21693         0.46420
   C       -8.84484        -6.34940         3.83145
   O       -9.94102        -6.87275         3.76563
   C       -7.82638        -6.36298         4.85904
   C       -6.74214        -5.57186         4.40757
   C       -5.72678        -5.57944         5.43871
   O       -4.62902        -5.05909         5.50251
   N       -6.26728        -6.38255         6.45375
   C       -5.56323        -6.59964         7.69542
   C       -6.10578        -5.71895         8.81748
   C       -7.51559        -6.86035         6.12529
   C       -8.26023        -7.72502         6.96186
   C       -9.47230        -8.22346         6.59942
   C      -10.23897        -9.12512         7.37662
   S      -11.73139        -9.71802         6.68888
   C      -12.09660       -10.72984         8.06346
   C      -11.09635       -10.58973         9.01505
   C      -10.05735        -9.69566         8.63068
   C       -9.04812        -9.60701         9.68229
   O       -8.02390        -8.96113         9.70297
   C       -9.52263       -10.51104        10.80512
   C      -10.82852       -11.13513        10.34469
   O      -11.48005       -11.92251        10.99152
   C      -13.28422       -11.51393         8.00346
   C      -13.69905       -12.36510         8.96440
   C      -14.88663       -13.18648         8.91871
   C      -15.16770       -13.99370        10.05445
   C      -16.25933       -14.80729        10.10603
   C      -17.14561       -14.86456         9.00979
   C      -16.87851       -14.06336         7.86283
   C      -15.74723       -13.23304         7.83789
   N      -17.70629       -14.09635         6.79365
   C      -18.74273       -14.88498         6.86698
   C      -19.00625       -15.67725         8.00515
   N      -18.22687       -15.66859         9.05302
   H       -0.16025        -2.25448         2.57489
   H       -1.19065         0.02232        -0.92580
   H        2.10860        -1.30172         2.54069
   H        4.27576         1.67534        -0.16885
   H        2.56900         2.35998        -1.90978
   H       -4.90007        -2.32977        -2.59403
   H       -5.54201        -0.85566        -1.90409
   H       -4.59332        -4.13326         3.54319
   H       -6.71822        -3.97120         1.33301
   H       -8.92670        -4.26019         1.29669
   H      -10.06989        -5.53086         1.79675
   H       -7.47557        -6.01482         0.23969
   H       -9.10631        -6.04299        -0.43329
   H       -8.62265        -7.26030         0.75312
   H       -4.51852        -6.34393         7.49744
   H       -5.62590        -7.65427         7.97466
   H       -6.03629        -4.67034         8.53765
   H       -5.52333        -5.87958         9.72001
   H       -7.14467        -5.95865         9.02963
   H       -7.83085        -8.00370         7.91219
   H       -9.90222        -7.94066         5.64647
   H       -9.66837        -9.94242        11.72652
   H       -8.77972       -11.27958        11.02988
   H      -13.85726       -11.38533         7.09495
   H      -13.10562       -12.46045         9.86300
   H      -14.48562       -13.94887        10.89097
   H      -16.47382       -15.42113        10.96686
   H      -15.58357       -12.64713         6.94773
   H      -19.39912       -14.90618         6.00705
   H      -19.87155       -16.32519         8.04860
*
