# ORCA input file
# SCF done       -241.427269312942          0.000956611689
! CAM-B3LYP def2-SVP def2/J RIJCOSX Grid4 TightSCF
%maxcore 5000
%tddft
    Mode sTDDFT
    Ethresh 5.0
    maxcore 5000
end

%pal
  nprocs 6
  end
* xyz 0 1
   C       -3.94999       -10.67051         7.87229
   C       -4.25028       -11.99680         8.00853
   F       -4.32680       -12.54769         9.22436
   C       -4.48535       -12.79986         6.87268
   F       -4.78159       -14.09391         7.03233
   C       -4.41274       -12.26367         5.61767
   C       -4.10199       -10.90076         5.44368
   C       -3.87024       -10.08642         6.59130
   C       -3.56882        -8.71425         6.44303
   C       -3.51136        -8.17083         5.18510
   C       -3.74473        -8.99158         4.04624
   C       -4.01932       -10.32392         4.15795
   C       -3.64680        -8.17529         2.82570
   O       -3.50232        -8.56214         1.69317
   C       -3.57761        -6.75426         3.31654
   C       -3.26017        -6.80388         4.73894
   C       -2.81345        -5.77356         5.51592
   C       -2.52621        -5.89724         6.89408
   N       -2.27659        -5.94231         8.01254
   C       -2.54094        -4.46754         5.04933
   N       -2.29763        -3.39061         4.73979
   C       -3.82972        -5.65040         2.57333
   C       -4.46711        -5.70584         1.29587
   O       -5.18912        -6.78656         0.96792
   C       -4.59054        -4.78738         0.26877
   C       -4.18812        -3.44046        -0.16543
   O       -3.49804        -2.61391         0.35873
   N       -4.82237        -3.30334        -1.40065
   C       -5.59120        -4.38264        -1.80502
   O       -6.25160        -4.41773        -2.80937
   C       -5.41050        -5.37669        -0.72613
   C       -5.76107        -6.63264        -0.24628
   C       -6.54899        -7.76198        -0.61920
   N       -7.04556        -8.09993        -1.83909
   C       -6.80128        -7.45032        -3.10524
   C       -5.38045        -7.71308        -3.59633
   C       -7.72853        -9.34518        -1.78742
   O       -8.25847        -9.86442        -2.74233
   C       -7.62350        -9.74570        -0.40211
   C       -6.90473        -8.76546         0.29622
   C       -6.82959        -9.18552         1.68760
   O       -6.34639        -8.67723         2.67515
   N       -7.50080       -10.42894         1.71393
   C       -7.62480       -11.16073         2.95382
   C       -9.01442       -11.01485         3.56714
   C       -7.98345       -10.77630         0.47847
   C       -8.69061       -11.89996         0.02007
   C       -9.10151       -13.02618         0.67904
   C       -9.72677       -14.10613         0.02907
   C       -9.70885       -15.44401         0.43996
   N       -9.19629       -15.97335         1.62799
   O       -9.22215       -17.18685         1.76335
   O       -8.72644       -15.21139         2.46417
   C      -10.19361       -16.26999        -0.62512
   C      -10.47746       -15.48367        -1.69899
   C      -10.27358       -14.11236        -1.33909
   C      -10.66039       -13.01630        -2.08494
   C      -11.23452       -11.79481        -1.58470
   C      -11.73703       -11.09227        -2.62908
   C      -11.42678       -11.79635        -3.84959
   N      -11.74469       -11.28962        -5.12720
   O      -12.35912       -10.24083        -5.17124
   O      -11.40644       -11.93428        -6.10367
   C      -10.75769       -12.96879        -3.55291
   C      -10.15819       -13.88730        -4.46576
   C       -9.01808       -14.58999        -4.25441
   C       -8.11706       -14.34801        -3.16813
   C       -7.35691       -15.20121        -2.43727
   C       -6.74575       -14.66357        -1.18395
   O       -6.54400       -13.49605        -0.92661
   C       -6.55139       -15.82730        -0.30901
   C       -6.17317       -15.86118         1.00435
   C       -6.18413       -17.09420         1.69215
   C       -6.57798       -18.27562         0.99780
   C       -6.62713       -19.49701         1.69650
   C       -6.30806       -19.54187         3.02434
   C       -5.92248       -18.37255         3.71109
   C       -5.85781       -17.17319         3.05924
   F       -5.61402       -18.44955         5.01016
   F       -6.35494       -20.70226         3.68838
   C       -6.93077       -18.21576        -0.36910
   C       -6.91585       -17.00901        -1.01650
   C       -7.23739       -16.64995        -2.39608
   C       -7.25491       -17.53281        -3.43930
   C       -7.32648       -17.17349        -4.79937
   N       -7.34386       -16.92972        -5.92085
   C       -7.09767       -18.92881        -3.28842
   N       -6.98869       -20.06908        -3.22969
   H       -3.77307       -10.07142         8.75183
   H       -4.59236       -12.89102         4.75885
   H       -3.40307        -8.12369         7.32965
   H       -4.18219       -10.92399         3.27573
   H       -3.62648        -4.65533         2.94514
   H       -4.75387        -2.45978        -1.95333
   H       -6.97976        -6.37855        -3.01617
   H       -7.52101        -7.87901        -3.80700
   H       -4.64849        -7.33695        -2.88501
   H       -5.23129        -7.20852        -4.54583
   H       -5.21663        -8.77911        -3.73561
   H       -6.88273       -10.73005         3.63312
   H       -7.37827       -12.21081         2.78199
   H       -9.20311        -9.97415         3.81907
   H       -9.07673       -11.60968         4.47369
   H       -9.78591       -11.35028         2.87841
   H       -8.86748       -11.84098        -1.04537
   H       -8.85424       -13.19219         1.71668
   H      -10.29714       -17.33598        -0.54823
   H      -10.90289       -15.80673        -2.62912
   H      -11.34551       -11.56485        -0.54286
   H      -12.27638       -10.16485        -2.60375
   H      -10.66829       -14.00136        -5.41428
   H       -8.74891       -15.33835        -4.98475
   H       -8.05831       -13.31546        -2.83213
   H       -5.89985       -14.95336         1.52002
   H       -6.92671       -20.39962         1.18787
   H       -5.57700       -16.28578         3.60376
   H       -7.23416       -19.12483        -0.86237
*
