# ORCA input file
# SCF done       -204.651484059959          0.000883714210
! CAM-B3LYP def2-SVP def2/J RIJCOSX Grid4 TightSCF
%maxcore 5000
%tddft
    Mode sTDDFT
    Ethresh 5.0
    maxcore 5000
end

%pal
  nprocs 6
  end
* xyz 0 1
   C       -1.67351         0.97277        -7.74827
   C       -1.26978        -0.17528        -7.14108
   C       -2.04127        -1.32867        -7.48764
   C       -3.15062        -1.07464        -8.36380
   O       -4.03709        -1.76242        -8.76644
   S       -3.03982         0.73855        -8.76291
   C       -1.51886        -2.40010        -6.79551
   O       -0.48999        -1.98823        -6.00966
   C       -0.26013        -0.61895        -6.18747
   O        0.60707        -0.04682        -5.59904
   C       -1.90149        -3.76985        -6.79267
   C       -2.31511        -4.53684        -7.87204
   N       -2.35992        -4.18599        -9.24652
   O       -2.92071        -4.96298        -9.98970
   O       -1.79744        -3.16861        -9.60034
   C       -2.53671        -5.88509        -7.43540
   C       -2.20942        -5.97527        -6.11925
   C       -1.81850        -4.67834        -5.64573
   C       -1.57318        -4.32569        -4.32963
   C       -1.85394        -3.07919        -3.70715
   C       -1.70531        -3.22257        -2.35665
   C       -1.27896        -4.55289        -2.06120
   N       -1.02393        -4.92770        -0.72765
   O       -0.96368        -4.03421         0.09512
   O       -0.90182        -6.11185        -0.44965
   C       -1.14325        -5.26563        -3.26612
   C       -0.53239        -6.47545        -3.61609
   C       -0.18560        -7.53199        -2.80129
   C        0.41649        -8.68221        -3.31698
   N        0.72183        -9.78898        -2.56577
   C        0.46355        -9.96302        -1.15295
   C       -0.99327       -10.32682        -0.88451
   C        1.29072       -10.81049        -3.33236
   O        1.62749       -11.88831        -2.88704
   C        1.35354       -10.25967        -4.68082
   C        0.81886        -8.97261        -4.64597
   C        0.89342        -8.41659        -5.99192
   O        0.54200        -7.34598        -6.44015
   N        1.49493        -9.42651        -6.75219
   C        1.72489        -9.26335        -8.17124
   C        0.63811        -9.93831        -9.00193
   C        1.77071       -10.54348        -6.00753
   C        2.34265       -11.70887        -6.52682
   C        2.52317       -12.82359        -5.73850
   C        3.06486       -14.06954        -6.08122
   C        3.89747       -14.52496        -7.11850
   N        4.30050       -13.90768        -8.32040
   O        3.70856       -12.91194        -8.70864
   O        5.21622       -14.42688        -8.92762
   C        4.38814       -15.82321        -6.78498
   C        3.89020       -16.20057        -5.57113
   C        3.01722       -15.17594        -5.10020
   C        2.13103       -15.26285        -4.03956
   C        0.82408       -14.68583        -3.99742
   C        0.14135       -15.21068        -2.94004
   C        1.01172       -16.08762        -2.21967
   N        0.61808       -16.73265        -1.02775
   O       -0.52594       -16.55202        -0.65475
   O        1.42799       -17.43390        -0.44759
   C        2.25290       -16.13055        -2.85180
   C        3.43134       -16.72822        -2.35847
   C        4.69354       -16.33611        -2.69362
   C        5.87020       -16.94950        -2.22032
   C        7.14828       -16.56455        -2.56374
   C        8.20309       -17.32996        -1.97675
   C        7.75935       -18.40016        -1.10861
   O        8.35719       -19.21171        -0.47419
   S        5.91804       -18.32751        -1.13054
   C        9.37136       -16.80207        -2.43785
   O        9.15291       -15.77460        -3.26789
   C        7.76889       -15.56364        -3.40394
   O        7.31497       -14.70399        -4.10773
   H       -1.23831         1.94977        -7.65345
   H       -2.88903        -6.66432        -8.08383
   H       -2.33314        -6.83935        -5.49675
   H       -2.23278        -2.20777        -4.20287
   H       -1.88202        -2.47945        -1.60132
   H       -0.31072        -6.57467        -4.67067
   H       -0.40472        -7.49360        -1.74549
   H        0.73588        -9.04941        -0.62030
   H        1.11420       -10.77689        -0.82270
   H       -1.65991        -9.53172        -1.20881
   H       -1.13537       -10.48275         0.18045
   H       -1.25546       -11.24357        -1.40738
   H        2.70822        -9.66407        -8.42619
   H        1.71766        -8.18666        -8.35950
   H        0.62429       -11.01140        -8.82810
   H        0.82863        -9.76194       -10.05611
   H       -0.33709        -9.52696        -8.75234
   H        2.61685       -11.73163        -7.56995
   H        2.20850       -12.74871        -4.70554
   H        5.04115       -16.38726        -7.42418
   H        4.03054       -17.15281        -5.09836
   H        0.40914       -14.05525        -4.75915
   H       -0.87806       -15.02371        -2.65988
   H        3.30689       -17.50019        -1.60697
   H        4.85851       -15.48494        -3.34186
   H       10.39475       -17.07070        -2.24867
*
