# ORCA input file
# SCF done       -164.418498360624          0.000944997388
! CAM-B3LYP def2-SVP def2/J RIJCOSX Grid4 TightSCF
%maxcore 5000
%tddft
    Mode sTDDFT
    Ethresh 5.0
    maxcore 5000
end

%pal
  nprocs 6
  end
* xyz 0 1
   C       -3.38402        -0.37861        -4.07713
   N       -3.01814         0.78673        -4.66563
   C       -2.45329         0.92958        -5.98440
   C       -3.50853         0.73795        -7.07039
   C       -3.31731         1.89663        -3.84005
   O       -3.07351         3.04563        -4.15790
   C       -3.90551         1.30801        -2.66212
   C       -3.92773        -0.10539        -2.84884
   C       -4.51545        -0.70690        -1.66599
   O       -4.74435        -1.85519        -1.36410
   N       -4.81768         0.39319        -0.84047
   C       -5.37565         0.19969         0.47639
   C       -4.30997         0.29851         1.56529
   C       -4.45882         1.59493        -1.41163
   C       -4.65710         2.84734        -0.79702
   C       -4.26780         4.02958        -1.36980
   C       -4.45639         5.27555        -0.75309
   C       -4.01104         6.44949        -1.31357
   C       -4.10805         7.73982        -0.76383
   C       -4.78494         8.03801         0.39781
   C       -4.91115         9.26325         1.06682
   C       -4.67238        10.60545         0.70293
   N       -4.00257        11.16632        -0.39248
   O       -3.27272        10.46925        -1.08409
   O       -4.16660        12.36045        -0.59092
   C       -5.26478        11.45494         1.67728
   C       -5.86758        10.69296         2.64488
   C       -5.64991         9.32792         2.34671
   C       -5.95473         8.23007         3.15361
   C       -5.18546         7.04722         3.26329
   C       -5.72941         6.25841         4.24297
   C       -6.88986         6.88644         4.76976
   N       -7.61586         6.24422         5.77931
   O       -7.36120         5.06441         5.97847
   O       -8.44591         6.86313         6.43224
   C       -7.07788         8.12178         4.10627
   C       -8.13157         9.04279         4.05836
   C       -9.27021         9.09350         4.83341
   C      -10.24754        10.09737         4.75456
   C      -10.17637        11.27017         4.03854
   C      -11.18289        12.24557         4.08403
   C      -11.04815        13.45948         3.46119
   C      -11.91538        14.56646         3.41700
   N      -13.20977        14.71911         3.86554
   C      -14.04955        13.75945         4.54077
   C      -13.77443        13.72212         6.04283
   C      -13.70620        16.01778         3.61752
   O      -14.82463        16.37428         3.91744
   C      -12.61233        16.70112         2.96108
   C      -11.54387        15.79114         2.84638
   C      -10.45441        16.46916         2.18811
   O       -9.34370        16.10983         1.86241
   N      -10.95352        17.77618         1.94184
   C      -10.09605        18.74843         1.30952
   C       -9.40979        19.64896         2.33479
   C      -12.23332        17.92326         2.40608
   C      -13.11153        19.05735         2.35845
   C      -12.87779        20.30947         1.95895
   H       -3.22712        -1.32242        -4.56565
   H       -1.64271         0.20527        -6.10787
   H       -2.04259         1.94154        -6.03673
   H       -3.94356        -0.25758        -7.01333
   H       -3.05625         0.86557        -8.04974
   H       -4.30226         1.47211        -6.95505
   H       -5.80601        -0.80563         0.47635
   H       -6.17647         0.92463         0.64635
   H       -3.55101        -0.46439         1.41072
   H       -4.76444         0.14397         2.53981
   H       -3.82761         1.27354         1.55355
   H       -5.13622         2.86722         0.17241
   H       -3.78289         4.01060        -2.33652
   H       -4.95107         5.28321         0.20965
   H       -3.49624         6.37005        -2.26272
   H       -3.59243         8.53173        -1.28624
   H       -5.31134         7.22525         0.87990
   H       -5.21179        12.52691         1.63744
   H       -6.30514        11.07075         3.54926
   H       -4.25437         6.86519         2.76106
   H       -5.35347         5.31796         4.60034
   H       -8.02518         9.79467         3.28856
   H       -9.42770         8.32607         5.57636
   H      -11.12743         9.94974         5.36934
   H       -9.30301        11.49070         3.44068
   H      -12.06137        12.00956         4.66454
   H      -10.11876        13.64578         2.93512
   H      -13.92319        12.77703         4.08014
   H      -15.07890        14.09253         4.37516
   H      -12.72964        13.49908         6.24861
   H      -14.39691        12.96649         6.51435
   H      -14.01090        14.68842         6.48125
   H      -10.67271        19.32663         0.58442
   H       -9.33498        18.17278         0.77358
   H      -10.13751        20.16397         2.95816
   H       -8.79585        20.38637         1.82495
   H       -8.76946        19.05000         2.97768
   H      -14.09900        18.80517         2.72614
   H      -11.92810        20.66580         1.60528
   H      -13.66870        21.03930         1.99182
*
