# ORCA input file
# SCF done       -192.730368431995          0.000430019600
! CAM-B3LYP def2-SVP def2/J RIJCOSX Grid4 TightSCF
%maxcore 5000
%tddft
    Mode sTDDFT
    Ethresh 5.0
    maxcore 5000
end

%pal
  nprocs 6
  end
* xyz 0 1
   C       -3.27344         4.99580        -1.69689
   S       -1.76259         4.96155        -2.49626
   C       -0.97397         5.73617        -1.13808
   C       -1.88163         5.97282        -0.11858
   C       -3.19041         5.55372        -0.45416
   C       -4.35949         5.69121         0.47293
   C       -4.08493         6.74694         1.55568
   C       -4.19528         8.15663         0.98611
   O       -3.29280         8.93451         0.88759
   O       -5.43378         8.49781         0.59213
   C       -2.70893         6.48871         2.20572
   O       -2.69738         5.23957         2.85627
   C       -1.56617         6.61803         1.19212
   C        0.41253         6.00706        -1.28768
   C        1.20182         6.75477        -0.47228
   C        2.57233         7.03344        -0.67811
   S        3.23379         8.42275         0.12698
   C        4.75685         8.31056        -0.69983
   C        4.78964         7.14853        -1.49911
   C        3.55848         6.42353        -1.47900
   C        3.48159         5.19275        -2.15166
   C        4.56288         4.72389        -2.85246
   S        4.50911         3.16812        -3.70940
   C        5.78291         5.44697        -2.88757
   O        6.86694         4.99128        -3.55256
   C        5.88934         6.63268        -2.19824
   C        5.71394         9.31874        -0.49895
   C        6.71212         9.66187        -1.36747
   C        7.69522        10.64803        -1.14216
   C        8.29029        11.39578        -2.14359
   C        9.06049        12.41845        -1.53742
   C        9.66551        13.47710        -2.19887
   N       10.07545        14.41837        -2.72413
   C        8.97565        12.28936        -0.14450
   C        8.13573        11.20842         0.14841
   C        7.82972        10.68791         1.41658
   C        7.74328        11.44301         2.69144
   C        7.56533        10.50672         3.70067
   C        7.53382         9.21884         3.11822
   C        7.67506         9.33562         1.73195
   C        7.37292         8.02234         3.82302
   N        7.23982         7.04241         4.40883
   C        7.67630        12.84176         2.80984
   S        7.18598        13.83046         1.46311
   C        7.33676        15.31162         2.35035
   C        7.68332        15.04489         3.69230
   C        7.89828        13.65877         3.94449
   C        8.38132        13.26542         5.20064
   C        8.56566        14.20088         6.18859
   S        9.16918        13.74435         7.79574
   C        8.29045        15.57379         5.96005
   O        8.44760        16.50516         6.92349
   C        7.87495        15.98299         4.71273
   C        7.25366        16.55218         1.69913
   C        7.31725        16.67363         0.34136
   C        7.31104        17.88014        -0.38291
   S        6.90948        19.41246         0.33855
   C        7.14745        20.24654        -1.16922
   C        7.51536        19.36697        -2.17759
   C        7.61679        18.04084        -1.73235
   C        8.02965        16.90642        -2.61475
   C        8.66245        17.39620        -3.92494
   C       10.12321        17.82749        -3.73695
   O       10.51107        18.94531        -3.95687
   O       10.95965        16.88575        -3.34236
   C        7.81594        18.53143        -4.53159
   O        6.52317        18.07992        -4.86838
   C        7.77089        19.74868        -3.59866
   C        6.93235        21.66616        -1.16620
   C        7.31215        22.54600        -2.09303
   H       -4.14409         4.60425        -2.18460
   H       -4.55474         4.73038         0.96206
   H       -5.25383         5.93799        -0.10678
   H       -4.84454         6.64899         2.34234
   H       -6.08868         7.80578         0.75430
   H       -2.55806         7.22405         3.00324
   H       -2.59956         4.54812         2.19142
   H       -0.67128         6.16984         1.63255
   H       -1.37529         7.68104         1.02750
   H        0.83596         5.61488        -2.20129
   H        0.76129         7.27042         0.36658
   H        2.58830         4.59370        -2.07971
   H        3.26797         2.85847        -3.35243
   H        6.68299         4.13852        -3.96765
   H        6.84671         7.12409        -2.18061
   H        5.58271         9.91753         0.39359
   H        6.69682         9.24153        -2.36504
   H        8.15075        11.27025        -3.20101
   H        9.54892        12.86169         0.56035
   H        7.37752        10.69787         4.73916
   H        7.73975         8.51548         1.04293
   H        8.63210        12.23301         5.38117
   H        9.28009        12.44649         7.53819
   H        8.75504        16.10242         7.74630
   H        7.70469        17.03336         4.54610
   H        7.21418        17.44217         2.31145
   H        7.43072        15.76957        -0.24450
   H        7.15433        16.28928        -2.85048
   H        8.73042        16.25984        -2.08067
   H        8.67056        16.55924        -4.63391
   H       10.57518        15.98301        -3.20292
   H        8.26380        18.83579        -5.48291
   H        6.03093        17.93297        -4.05260
   H        6.99182        20.42924        -3.95164
   H        8.73526        20.25666        -3.66582
   H        6.42407        22.02761        -0.27980
   H        7.86447        22.27408        -2.97234
   H        7.09350        23.59261        -1.96923
*
