# ORCA input file
# SCF done       -122.644721474559          0.000559071714
! CAM-B3LYP def2-SVP def2/J RIJCOSX Grid4 TightSCF
%maxcore 5000
%tddft
    Mode sTDDFT
    Ethresh 5.0
    maxcore 5000
end

%pal
  nprocs 6
  end
* xyz 0 1
   C       -1.72397         0.29680        -2.55150
   S       -0.96318         1.73995        -3.10874
   C       -1.84438         2.75757        -2.00440
   C       -2.70043         1.98044        -1.23365
   C       -2.61770         0.58811        -1.55809
   N       -3.49950        -0.03887        -0.73346
   N       -4.11990         0.84270         0.07147
   C       -3.66946         2.03908        -0.20060
   C       -1.66025         4.15811        -1.94822
   O       -2.37272         4.87964        -1.05985
   C       -2.01461         6.18668        -1.19156
   C       -1.05919         6.30889        -2.18004
   C       -0.82327         5.00847        -2.67557
   C        0.06825         4.64514        -3.69094
   N        0.80417         4.36809        -4.52689
   C       -2.60631         7.18279        -0.36936
   C       -3.55513         6.91908         0.56385
   C       -4.16662         7.87002         1.41888
   C       -3.92528         9.22131         1.51010
   C       -4.76386         9.75083         2.51276
   N       -5.05302        10.91915         3.12150
   C       -6.02383        10.69129         4.07701
   C       -6.34932         9.31881         4.05401
   C       -5.56236         8.73881         3.08069
   C       -5.23402         7.45209         2.41246
   C       -6.51368        11.73507         4.88312
   C       -7.46542        11.60711         5.85279
   C       -7.90247        12.68428         6.64075
   C       -8.83303        12.73971         7.65775
   C       -8.88144        14.08823         8.13369
   C       -7.93174        14.83082         7.35802
   O       -7.58439        15.99902         7.38275
   O       -7.37425        13.94645         6.46738
   C       -9.81413        14.12214         9.16195
   O      -10.33087        12.87696         9.34352
   C       -9.76640        11.96755         8.43895
   O      -10.08473        10.81072         8.42595
   C      -10.25588        15.17101         9.97461
   S      -11.39980        14.91982        11.29976
   C       -9.90954        16.51015         9.92630
   N       -9.16457        17.33150         9.16976
   C       -9.23647        18.65890         9.74117
   O      -10.14695        18.59492        10.83202
   C      -10.54014        17.29276        10.93602
   C      -11.36334        16.59951        11.74993
   H       -1.46260        -0.64490        -2.98731
   H       -3.71955        -1.01733        -0.66659
   H       -4.03299         2.89543         0.32862
   H       -0.58603         7.21083        -2.51051
   H       -2.24789         8.18737        -0.53257
   H       -3.88128         5.89337         0.67683
   H       -3.21910         9.78071         0.92471
   H       -4.64267        11.81924         2.93343
   H       -7.07339         8.84657         4.68695
   H       -6.09398         7.01347         1.90250
   H       -4.85049         6.70492         3.10990
   H       -6.09212        12.71914         4.72003
   H       -7.93050        10.65784         6.06691
   H       -8.48952        17.02701         8.46269
   H       -9.61001        19.38798         9.00558
   H       -8.25423        18.99873        10.10915
   H      -11.94944        16.94183        12.57696
*
