# ORCA input file
# SCF done       -139.109880623142          0.000971721938
! CAM-B3LYP def2-SVP def2/J RIJCOSX Grid4 TightSCF
%maxcore 5000
%tddft
    Mode sTDDFT
    Ethresh 5.0
    maxcore 5000
end

%pal
  nprocs 6
  end
* xyz 0 1
   C        2.52099        -8.58623         0.13474
   C        1.67335        -9.63256        -0.05603
   S        2.40758       -10.86397        -1.01757
   C        3.89061        -9.95027        -1.17124
  Cl        5.21043       -10.54955        -2.04695
   C        3.79106        -8.76678        -0.50347
   C        4.64034        -7.60062        -0.24681
   O        5.77217        -7.40603        -0.64125
   C        3.81864        -6.70311         0.59478
   C        2.51645        -7.30758         0.81944
   C        1.45652        -6.81501         1.53695
   C        0.25464        -7.54380         1.65865
   N       -0.72797        -8.12534         1.77061
   C        1.41604        -5.58338         2.21793
   N        1.31545        -4.59562         2.79645
   C        4.21991        -5.49888         1.10721
   C        5.44619        -4.82446         1.01269
   S        6.89567        -5.32502         0.13740
   C        7.77039        -3.94195         0.67877
   C        7.02327        -3.13960         1.48087
   C        5.69732        -3.62172         1.66920
   C        4.99238        -2.72393         2.52184
   C        5.82676        -1.69970         2.90438
   C        7.17943        -1.89704         2.26135
   O        8.15986        -1.19975         2.36480
   C        5.49448        -0.64076         3.78254
   C        6.39310         0.26766         4.24731
   C        6.10244         1.29607         5.16576
   S        4.47201         1.65432         5.74764
   C        5.04199         2.91499         6.78367
   C        6.38574         3.05770         6.70086
   C        6.99803         2.14913         5.78066
   C        8.40654         2.36587         5.79632
   C        8.71522         3.35878         6.69189
   C        7.45190         3.87594         7.32057
   O        7.33246         4.75180         8.14391
   C       10.03017         3.80516         6.99965
   C       10.33179         4.74923         7.92000
   C       11.67017         5.13278         8.22669
   O       12.71529         4.54899         7.57978
   C       13.86516         5.05949         8.04193
   C       13.56351         6.00147         9.02654
   C       12.15251         6.04254         9.13631
   N       14.41946         6.75558         9.86468
   O       15.61956         6.57570         9.78980
   O       13.88836         7.53590        10.62760
   C       15.08442         4.52973         7.46270
   C       16.27490         5.24950         7.33828
   C       17.36312         4.63478         6.74554
   C       17.22734         3.33432         6.28163
   N       16.10174         2.64548         6.38591
   C       15.06763         3.22054         6.95723
   H        0.67177        -9.77167         0.29949
   H        3.49548        -4.96355         1.70914
   H        8.79181        -3.80758         0.37801
   H        3.96765        -2.83615         2.83103
   H        4.46546        -0.59108         4.12080
   H        7.42370         0.20323         3.92643
   H        4.33948         3.45794         7.38541
   H        9.11769         1.82134         5.20034
   H       10.83385         3.32443         6.45468
   H        9.55385         5.24815         8.47658
   H       11.59488         6.66073         9.80822
   H       16.34927         6.26355         7.69392
   H       18.29739         5.16203         6.63717
   H       18.04763         2.81772         5.80169
   H       14.17344         2.61672         7.03437
*
