# ORCA input file
# SCF done       -180.261558327171          0.000712307010
! CAM-B3LYP def2-SVP def2/J RIJCOSX Grid4 TightSCF
%maxcore 5000
%tddft
    Mode sTDDFT
    Ethresh 5.0
    maxcore 5000
end

%pal
  nprocs 6
  end
* xyz 0 1
   C       10.57288        -2.61175        -4.35563
   O       10.60572        -1.40669        -3.78798
   C        9.45145        -1.23904        -3.08992
   C        8.66973        -2.36442        -3.21793
   C        9.40115        -3.25934        -4.04341
   C        9.00602        -4.54406        -4.44908
   N        8.66851        -5.59164        -4.76865
   C        9.27091        -0.01446        -2.37705
   C        8.19018         0.28441        -1.62686
   C        8.03858         1.48646        -0.88420
   S        9.25256         2.73275        -0.90973
   C        8.37056         3.69282         0.24397
   C        7.19166         3.06236         0.60885
   C        6.99750         1.83178        -0.03800
   C        5.78402         0.98322         0.18578
   C        4.65105         1.79216         0.82256
   C        4.03439         2.73871        -0.19882
   O        4.50982         2.98023        -1.26852
   O        2.88484         3.31850         0.19220
   C        5.17665         2.60933         2.03110
   O        5.70123         1.76828         3.02410
   C        6.19195         3.65341         1.55493
   C        8.88640         4.92383         0.72442
   C        9.94489         5.56768         0.18065
   C       10.53658         6.74221         0.71097
   S       10.14564         7.32291         2.30289
   C       11.31554         8.61054         2.18450
   C       11.92485         8.60891         0.93670
   C       11.50085         7.54763         0.12200
   C       12.00688         7.32226        -1.27206
   C       13.22701         8.20002        -1.60171
   C       14.52414         7.58349        -1.08973
   O       15.24990         8.07987        -0.27739
   O       14.83794         6.40471        -1.64830
   C       13.02582         9.63255        -1.06634
   O       11.92418        10.24927        -1.68643
   C       12.90461         9.63299         0.46059
   C       11.53125         9.40232         3.34384
   C       12.60971        10.18200         3.59352
   C       12.82955        10.87450         4.81277
   S       11.67103        10.87454         6.10499
   C       12.71428        11.83532         7.12191
   C       13.89458        12.15132         6.45970
   C       13.95834        11.60028         5.17027
   C       15.13923        11.78053         4.26377
   C       16.38752        12.21792         5.04662
   C       17.00098        11.03782         5.79321
   O       17.05668        10.92812         6.98241
   O       17.51272        10.08413         4.99819
   C       16.04019        13.38626         5.99120
   O       15.62694        14.51184         5.25125
   C       14.99953        12.97513         7.03781
   C       12.23724        12.12220         8.42715
   C       12.90051        12.70579         9.45406
   C       12.30419        12.90893        10.72867
   O       11.04210        12.52497        10.99829
   C       10.76608        12.84045        12.28992
   C       11.85944        13.44015        12.86906
   C       12.85882        13.49047        11.87038
   C       14.14760        14.02377        11.98383
   N       15.20102        14.46929        12.07589
   C        9.46098        12.51240        12.79749
   C        9.04621        12.75068        14.03884
   H       11.41156        -2.91623        -4.95030
   H        7.70569        -2.54427        -2.79018
   H       10.08653         0.69129        -2.45613
   H        7.38174        -0.42786        -1.54838
   H        6.03161         0.13280         0.83008
   H        5.43659         0.58582        -0.76996
   H        3.87698         1.10353         1.18185
   H        2.58016         3.01593         1.05770
   H        4.34103         3.12235         2.52429
   H        6.54477         1.41619         2.71626
   H        6.69395         4.07370         2.43032
   H        5.66291         4.46920         1.05264
   H        8.39222         5.35786         1.58356
   H       10.39109         5.16179        -0.71798
   H       11.20565         7.54818        -1.98464
   H       12.25038         6.26233        -1.39747
   H       13.31849         8.26691        -2.69412
   H       14.20304         6.11940        -2.31927
   H       13.89124        10.23845        -1.35558
   H       11.11574         9.87298        -1.31863
   H       12.59273        10.62934         0.78398
   H       13.89267         9.42239         0.87504
   H       10.78485         9.29748         4.12197
   H       13.39542        10.26507         2.86136
   H       14.91116        12.54105         3.50811
   H       15.33412        10.84730         3.72775
   H       17.13772        12.58157         4.33234
   H       17.44419        10.28902         4.05591
   H       16.95272        13.70497         6.50554
   H       14.72107        14.36731         4.95436
   H       14.59721        13.88603         7.48879
   H       15.50291        12.39847         7.81680
   H       11.21957        11.80103         8.61425
   H       13.92459        13.02978         9.37902
   H       11.94804        13.80012        13.87307
   H        8.80902        12.03762        12.07681
   H        9.67905        13.22074        14.77120
   H        8.05594        12.48005        14.35845
*
