# ORCA input file
# SCF done       -177.827627779429          0.000369805886
! CAM-B3LYP def2-SVP def2/J RIJCOSX Grid4 TightSCF
%maxcore 5000
%tddft
    Mode sTDDFT
    Ethresh 5.0
    maxcore 5000
end

%pal
  nprocs 6
  end
* xyz 0 1
   C       -7.25886         4.28510       -11.39833
   N       -5.92632         4.56695       -11.41407
   C       -5.03499         4.36490       -12.52687
   C       -5.21730         5.43929       -13.59647
   C       -5.50901         5.15842       -10.19819
   O       -4.35628         5.48679        -9.97042
   C       -6.71145         5.21658        -9.41893
   C       -7.77653         4.66292       -10.18981
   C       -8.97220         4.72029        -9.37462
   O      -10.11668         4.37887        -9.58204
   N       -8.55079         5.31223        -8.16444
   C       -9.49348         5.46486        -7.08401
   C       -9.30681         4.39708        -6.00816
   C       -7.20145         5.61267        -8.17685
   C       -6.36598         6.20712        -7.21006
   C       -6.64534         6.68276        -5.96001
   C       -5.71782         7.24685        -5.06766
   S       -6.36241         8.10893        -3.69933
   C       -4.79838         8.56797        -3.10359
   C       -3.79265         8.08763        -3.97228
   C       -4.30339         7.30490        -5.05133
   C       -3.39551         6.67001        -5.90993
   C       -2.03731         6.88569        -5.80173
   C       -1.11502         6.20154        -6.70462
   C       -1.40386         5.79544        -7.93547
   C       -1.54359         7.77466        -4.80687
   C       -0.08267         8.09795        -4.73174
   C       -2.41257         8.34303        -3.91064
   C       -4.75365         9.29002        -1.89876
   C       -3.66922         9.42559        -1.07908
   C       -3.60244        10.14380         0.13877
   C       -4.61776        10.99081         0.66787
   C       -4.47092        11.65174         1.93314
   N       -5.50992        12.32182         2.45617
   C       -6.61877        12.41714         1.76800
   C       -6.71899        11.88093         0.47802
   N       -5.74546        11.17999        -0.04221
   C       -3.26704        11.54729         2.68867
   C       -2.29040        10.64528         2.18499
   C       -2.42900         9.98608         0.93004
   N       -1.43978         9.18560         0.49090
   C       -0.38774         9.00986         1.24910
   C       -0.27263         9.61631         2.50845
   N       -1.21059        10.41801         2.94259
   C       -3.00451        12.19215         3.91722
   S       -1.72014        11.56752         4.93011
   C       -2.10002        12.67259         6.25434
   C       -3.09690        13.53957         5.84361
   C       -3.59774        13.29980         4.53848
   C       -4.49977        14.31758         4.12977
   C       -4.69230        15.27612         5.06574
   C       -5.55602        16.48101         4.98018
   S       -3.77498        14.98699         6.52950
   C       -1.33707        12.57604         7.43355
   S        0.20726        11.78518         7.33331
   C        0.54339        12.00625         9.01596
   C       -0.52499        12.65091         9.64763
   C       -1.59826        12.96880         8.75930
   C       -2.76209        13.54725         9.28236
   C       -2.86572        13.85598        10.62000
   C       -4.08188        14.48103        11.13324
   C       -5.29811        14.30772        10.63121
   C       -1.77669        13.57615        11.49959
   C       -1.88273        13.89739        12.95965
   C       -0.64677        12.97926        11.01288
   C        1.76520        11.55835         9.60434
   C        2.73875        10.91870         8.95228
   H       -7.73664         3.82950       -12.24568
   H       -5.20760         3.37129       -12.95195
   H       -4.02025         4.41173       -12.12174
   H       -6.23111         5.42002       -13.99066
   H       -4.52072         5.27182       -14.41336
   H       -5.02818         6.42212       -13.17172
   H      -10.48296         5.35150        -7.53831
   H       -9.41884         6.47194        -6.66556
   H       -9.47570         3.41200        -6.43628
   H      -10.02034         4.55354        -5.20348
   H       -8.30018         4.42614        -5.59709
   H       -5.35818         6.30871        -7.58177
   H       -7.66363         6.68943        -5.59932
   H       -3.74310         5.97173        -6.65050
   H       -0.11983         6.03173        -6.31490
   H       -2.35938         5.95655        -8.40566
   H       -0.66807         5.28726        -8.53600
   H        0.48925         7.22309        -4.42144
   H        0.09483         8.89202        -4.01060
   H        0.29036         8.41686        -5.70369
   H       -2.03165         9.01874        -3.16241
   H       -5.68963         9.72148        -1.57262
   H       -2.76191         8.88407        -1.30311
   H       -7.43854        12.94113         2.24153
   H       -7.59898        12.01890        -0.13611
   H        0.38784         8.36581         0.85734
   H        0.57476         9.45462         3.15878
   H       -4.97507        14.33447         3.16906
   H       -6.31561        16.46279         5.76162
   H       -6.04730        16.51929         4.01109
   H       -4.96509        17.38697         5.11457
   H       -3.58766        13.76019         8.62656
   H       -3.95590        15.12692        11.99147
   H       -5.49018        13.65036         9.80017
   H       -6.15511        14.80835        11.04837
   H       -2.77835        13.44975        13.38796
   H       -1.93639        14.97526        13.11341
   H       -1.01547        13.52085        13.49649
   H        0.16542        12.74362        11.68452
   H        1.87640        11.77016        10.65936
   H        2.65511        10.69190         7.90248
   H        3.63938        10.60551         9.44893
*
