# ORCA input file
# SCF done       -188.413183305865          0.000991006981
! CAM-B3LYP def2-SVP def2/J RIJCOSX Grid4 TightSCF
%maxcore 5000
%tddft
    Mode sTDDFT
    Ethresh 5.0
    maxcore 5000
end

%pal
  nprocs 6
  end
* xyz 0 1
   C       -0.84942        -1.94657         1.55690
   N       -1.80273        -1.49757         2.41528
   C       -2.50528        -2.29401         3.38805
   C       -1.63215        -2.60241         4.60197
   C       -2.00061        -0.09712         2.28519
   O       -2.80499         0.52152         2.95311
   C       -1.07527         0.28110         1.24900
   C       -0.38065        -0.89292         0.82270
   C        0.53519        -0.49846        -0.22544
   O        1.33669        -1.12490        -0.88441
   N        0.31914         0.88887        -0.38037
   C        1.15709         1.63101        -1.29156
   C        2.17155         2.50379        -0.55740
   C       -0.63741         1.36379         0.49577
   C       -1.15837         2.67414         0.66468
   C       -0.96990         3.77220        -0.10871
   C       -1.53497         5.06665         0.11203
   C       -1.38232         6.03415        -0.91518
   C       -1.91693         7.35319        -0.78914
   N       -1.65690         8.28637        -1.73188
   C       -0.99537         7.92005        -2.79024
   C       -0.54600         6.59277        -2.96157
   N       -0.71055         5.68933        -2.03800
   C       -2.68011         7.71300         0.33860
   C       -2.84539         6.75897         1.36161
   C       -2.23159         5.46788         1.27858
   N       -2.30253         4.63933         2.34201
   C       -3.01982         4.99029         3.36875
   C       -3.75984         6.19376         3.37181
   N       -3.64938         7.05755         2.40675
   C       -3.28380         9.02350         0.43709
   C       -4.02554         9.56446        -0.63167
   C       -4.59081        10.87801        -0.56026
   N       -5.37481        11.32083        -1.56168
   C       -5.56840        10.54907        -2.59543
   C       -4.99709         9.26379        -2.67264
   N       -4.26379         8.78420        -1.71023
   C       -4.41750        11.68762         0.59609
   C       -3.77740        11.07312         1.70823
   C       -3.17823         9.78045         1.61882
   N       -2.46398         9.30196         2.66031
   C       -2.42927         9.99586         3.76155
   C       -3.10355        11.22659         3.88531
   N       -3.72608        11.75124         2.86574
   C       -4.90860        13.01109         0.73207
   S       -5.30486        13.58461         2.31827
   C       -5.97780        15.06756         1.72067
   C       -5.74815        15.19246         0.33897
   C       -5.14666        14.02496        -0.22288
   C       -4.76351        14.04680        -1.56942
   C       -5.00689        15.14542        -2.36534
   C       -4.61867        15.12883        -3.77416
   C       -3.58544        14.46250        -4.27274
   C       -5.62753        16.29913        -1.80996
   C       -5.86217        17.51592        -2.65304
   C       -5.96198        16.31458        -0.48103
   C       -6.60808        15.91571         2.66312
   C       -7.50313        16.89880         2.39192
   C       -8.14436        17.74391         3.34044
   S       -9.52511        18.66124         2.77929
   C       -9.74916        19.35519         4.32821
   C       -8.81685        18.93052         5.22878
   C       -7.89243        18.01420         4.67383
   C       -6.77382        17.45041         5.48524
   C       -6.53436        18.23429         6.78002
   C       -7.86523        18.48555         7.50264
   O       -7.56154        19.08262         8.75134
   C       -8.58988        19.00837         9.70423
   C       -8.75509        19.39595         6.64826
   N       -5.67836        17.43203         7.63953
   H       -0.58003        -2.98626         1.52300
   H       -2.84372        -3.22218         2.91721
   H       -3.37612        -1.70826         3.69520
   H       -0.74677        -3.16109         4.30613
   H       -2.19343        -3.19195         5.32164
   H       -1.31685        -1.67727         5.07797
   H        0.54182         2.22527        -1.97162
   H        1.68578         0.87287        -1.87861
   H        1.67401         3.23011         0.08044
   H        2.78725         3.03498        -1.27814
   H        2.81616         1.88269         0.06028
   H       -1.80937         2.75708         1.52453
   H       -0.38769         3.72546        -1.01607
   H       -0.78583         8.68527        -3.52617
   H       -0.01934         6.28440        -3.85531
   H       -3.02722         4.31015         4.20951
   H       -4.43297         6.44581         4.18059
   H       -6.20779        10.93908        -3.37601
   H       -5.17150         8.61643        -3.52224
   H       -1.84339         9.58977         4.57544
   H       -3.10762        11.79267         4.80618
   H       -4.27795        13.18593        -1.99335
   H       -5.23619        15.71594        -4.44078
   H       -2.91914        13.88628        -3.65286
   H       -3.35795        14.47993        -5.32509
   H       -6.59860        17.30805        -3.42951
   H       -4.94049        17.83313        -3.13882
   H       -6.23437        18.33586        -2.04370
   H       -6.35773        17.21882        -0.04655
   H       -6.39585        15.66629         3.69159
   H       -7.83206        17.04267         1.37271
   H      -10.55621        20.04204         4.48996
   H       -5.85279        17.43915         4.89750
   H       -7.00027        16.41808         5.77027
   H       -6.09996        19.22175         6.54072
   H       -8.36065        17.51666         7.67015
   H       -8.17431        19.39601        10.63284
   H       -8.91480        17.97184         9.85537
   H       -9.45775        19.61436         9.42133
   H       -8.33358        20.40611         6.68563
   H       -9.76397        19.44469         7.06405
   H       -5.66370        17.84307         8.56679
   H       -4.72896        17.42225         7.28313
*
