# ORCA input file
# SCF done       -190.221648040612          0.000524112499
! CAM-B3LYP def2-SVP def2/J RIJCOSX Grid4 TightSCF
%maxcore 5000
%tddft
    Mode sTDDFT
    Ethresh 5.0
    maxcore 5000
end

%pal
  nprocs 6
  end
* xyz 0 1
   C       -4.51068        -0.08401         1.30297
   S       -2.99027        -0.71424         0.83753
   C       -3.26378        -2.23046         1.63964
   C       -4.51775        -2.21594         2.24897
   C       -5.22821        -0.98735         2.04904
   N       -6.47512        -0.80568         2.56107
   C       -6.96543        -1.80795         3.23351
   O       -8.18551        -1.73220         3.76340
   C       -8.89576        -0.51659         3.54058
   C      -10.27388        -0.65401         4.16056
   C       -6.24637        -3.04675         3.44854
   C       -6.87648        -4.15385         4.24972
   N       -6.05263        -5.33151         4.41513
   N       -5.05551        -3.23246         2.96155
   C       -2.34812        -3.30569         1.64368
   C       -1.15585        -3.32107         0.99964
   C       -0.28039        -4.43579         1.00896
   O       -0.56899        -5.55778         1.69414
   C        0.43349        -6.45116         1.49243
   C        1.39173        -5.90159         0.66468
   C        0.94279        -4.60278         0.35018
   C        1.57585        -3.65519        -0.46295
   N        2.09267        -2.88030        -1.13295
   C        0.34395        -7.71438         2.14515
   C        1.18916        -8.74097         1.91112
   C        1.17546       -10.01432         2.55665
   S        1.79096       -11.37763         1.67233
   C        1.44799       -12.46073         2.99039
   C        0.90574       -11.77305         4.06516
   C        0.76144       -10.39655         3.82350
   C        0.27135        -9.44326         4.87860
   C        1.10165        -8.19673         4.99338
   O        0.67687        -7.09190         5.17689
   C        2.65251        -8.38154         4.98249
   F        3.07329        -9.65192         5.03246
   F        3.19028        -7.83748         3.88402
   F        3.19237        -7.76326         6.03981
   C        0.27950       -10.10638         6.27427
   C       -0.36652       -11.48298         6.18247
   C        0.51920       -12.41434         5.36117
   C        1.72156       -13.84886         2.90365
   C        2.19601       -14.47047         1.79696
   C        2.45979       -15.86065         1.72858
   O        2.29923       -16.66770         2.79801
   C        2.61773       -17.93549         2.42530
   C        2.98718       -17.95220         1.09399
   C        2.89160       -16.62174         0.63805
   C        3.16233       -16.14093        -0.64831
   N        3.38725       -15.75272        -1.70441
   C        2.55455       -19.00780         3.35418
   C        2.22576       -18.85631         4.65998
   C        2.17417       -19.92075         5.59049
   S        1.80951       -19.61519         7.26029
   C        1.94258       -21.27561         7.72474
   C        2.25701       -22.05028         6.60934
   C        2.38774       -21.28826         5.40614
   N        2.68442       -21.88701         4.22802
   C        2.84254       -23.18233         4.25682
   O        3.12978       -23.85011         3.13981
   C        3.24440       -23.07516         1.94972
   C        3.55174       -24.01671         0.80016
   C        2.71828       -23.95822         5.46782
   C        2.91831       -25.44988         5.42853
   N        2.77520       -26.12279         6.70001
   N        2.43312       -23.39463         6.60273
   C        1.73903       -21.65510         9.08970
   C        1.82669       -22.90491         9.54728
   H       -4.80005         0.90380         1.00793
   H       -8.95689        -0.33382         2.46187
   H       -8.33403         0.31024         3.98983
   H      -10.80963        -1.48099         3.70254
   H      -10.83613         0.26236         4.00744
   H      -10.18778        -0.84526         5.22667
   H       -7.81487        -4.44367         3.76379
   H       -7.13893        -3.76236         5.23864
   H       -5.80209        -5.69594         3.50108
   H       -5.18210        -5.07113         4.86849
   H       -2.66596        -4.17246         2.20742
   H       -0.82497        -2.46534         0.42727
   H        2.30261        -6.35690         0.33544
   H       -0.48366        -7.80578         2.83149
   H        1.93140        -8.63345         1.13211
   H       -0.75785        -9.13308         4.66214
   H       -0.26365        -9.46673         6.97109
   H        1.30271       -10.21762         6.63705
   H       -1.34931       -11.39625         5.71528
   H       -0.50160       -11.89160         7.18453
   H       -0.00232       -13.35459         5.17244
   H        1.42821       -12.64660         5.92491
   H        1.52939       -14.43766         3.78962
   H        2.38969       -13.91164         0.89176
   H        3.28929       -18.80632         0.52335
   H        2.79486       -19.98815         2.97535
   H        1.99478       -17.87072         5.04171
   H        4.04219       -22.33485         2.08335
   H        2.30393       -22.53614         1.78444
   H        4.48384       -24.54292         0.98641
   H        3.64062       -23.45108        -0.12256
   H        2.75603       -24.74883         0.69361
   H        3.91791       -25.65499         5.02991
   H        2.20000       -25.87659         4.71976
   H        3.44306       -25.74160         7.36275
   H        1.85068       -25.94070         7.07779
   H        1.50333       -20.83851         9.76055
   H        2.06380       -23.71941         8.88713
   H        1.66725       -23.13121        10.58670
*
