# ORCA input file
# SCF done       -212.429736999171          0.000820901270
! CAM-B3LYP def2-SVP def2/J RIJCOSX Grid4 TightSCF
%maxcore 5000
%tddft
    Mode sTDDFT
    Ethresh 5.0
    maxcore 5000
end

%pal
  nprocs 6
  end
* xyz 0 1
   C       -0.34465        -0.10755        -1.55910
   S       -0.06418        -1.71484        -2.04535
   C       -0.20014        -2.33528        -0.42609
   C       -0.45888        -1.28059         0.45985
   C       -0.54664        -0.01263        -0.19789
   N       -0.81515         1.12518         0.49104
   C       -0.98834         0.98807         1.77672
   O       -1.27129         2.04172         2.53570
   C       -1.38336         3.29596         1.86545
   C       -1.75569         4.34794         2.89318
   C       -0.89136        -0.28902         2.45134
   C       -1.09500        -0.36707         3.93996
   N       -0.97838        -1.68531         4.51623
   N       -0.63281        -1.38330         1.79647
   C       -0.08991        -3.71661        -0.18464
   C       -0.15795        -4.28022         1.05785
   C       -0.12838        -5.67164         1.24579
   C       -0.09345        -6.71874         0.33916
   C       -0.19465        -7.93067         1.08188
   C       -0.24792        -7.57411         2.48496
   O       -0.31022        -8.23690         3.48235
   O       -0.20333        -6.18394         2.51201
   C       -0.29011        -8.96879         0.18385
   O       -0.19815        -8.46859        -1.09207
   C       -0.07512        -7.06818        -1.05716
   O        0.03251        -6.42616        -2.06475
   C       -0.51998       -10.34200         0.39099
   S       -0.47865       -11.00975         1.98770
   C       -0.92958       -12.57689         1.38008
   C       -1.08705       -12.56462        -0.00549
   C       -0.85216       -11.30520        -0.56004
   C       -0.97762       -10.98739        -2.02016
   C       -1.90016        -9.80633        -2.21876
   O       -2.80699        -9.49105        -1.50422
   C       -1.70907        -9.07455        -3.58123
   F       -0.43655        -9.02370        -3.98323
   F       -2.37858        -9.74744        -4.54329
   F       -2.19426        -7.84018        -3.56092
   C       -1.57609       -12.17529        -2.80096
   C       -0.96204       -13.47875        -2.30567
   C       -1.39929       -13.74659        -0.86724
   C       -1.11292       -13.62624         2.32083
   C       -1.86971       -14.73202         2.12514
   C       -2.09637       -15.74283         3.09506
   S       -1.06606       -15.96008         4.47320
   C       -2.03011       -17.29498         5.04879
   C       -3.10615       -17.53331         4.20303
   C       -3.13552       -16.66599         3.10467
   C       -4.19983       -16.73405         2.04425
   C       -4.69268       -15.38920         1.59593
   O       -4.85571       -15.05536         0.45514
   C       -5.12090       -14.38708         2.71282
   F       -4.87932       -14.79872         3.96379
   F       -4.50145       -13.21380         2.55955
   F       -6.44017       -14.16527         2.63529
   C       -5.41673       -17.53574         2.55171
   C       -4.93700       -18.85215         3.15116
   C       -4.14103       -18.59061         4.42692
   C       -1.68287       -18.01499         6.21882
   C       -0.52734       -17.84182         6.90477
   C       -0.17532       -18.56584         8.07980
   C       -1.02482       -19.14521         8.97864
   C       -0.25331       -19.64574        10.09387
   C       -0.80754       -20.30095        11.20228
   N       -1.27510       -20.83515        12.10443
   C        1.07212       -19.37209         9.88607
   C        1.20088       -18.74480         8.60035
   C        2.38906       -18.54149         7.95266
   C        3.71091       -18.68369         8.55691
   C        4.64408       -18.44434         7.62095
   C        3.95975       -18.16939         6.35302
   C        2.61528       -18.21574         6.56078
   C        4.61318       -17.92216         5.14041
   N        5.15385       -17.72585         4.14646
   H       -0.35586         0.69022        -2.27402
   H       -2.14472         3.21213         1.08220
   H       -0.42753         3.52647         1.38225
   H       -2.70229         4.09470         3.36232
   H       -1.84661         5.31537         2.40859
   H       -0.99203         4.40603         3.66360
   H       -2.08824         0.03429         4.17137
   H       -0.36775         0.29631         4.42187
   H       -1.65621        -2.31113         4.09360
   H       -0.05922        -2.06937         4.32317
   H        0.03970        -4.35342        -1.05056
   H       -0.26474        -3.65785         1.93274
   H        0.01038       -10.74367        -2.42547
   H       -1.38854       -12.04363        -3.86659
   H       -2.65659       -12.20618        -2.64466
   H        0.12656       -13.41533        -2.35581
   H       -1.28582       -14.30046        -2.94516
   H       -0.89324       -14.63270        -0.47797
   H       -2.47789       -13.93417        -0.85220
   H       -0.66551       -13.46909         3.29392
   H       -2.40108       -14.85239         1.19511
   H       -3.79900       -17.23663         1.15392
   H       -6.09776       -17.71558         1.71894
   H       -5.95021       -16.96778         3.31583
   H       -4.31258       -19.37763         2.42605
   H       -5.79607       -19.48400         3.37873
   H       -3.66930       -19.51467         4.76589
   H       -4.81815       -18.25435         5.21861
   H       -2.38181       -18.77522         6.53719
   H        0.17277       -17.09664         6.55303
   H       -2.09656       -19.18396         8.92922
   H        1.88216       -19.64566        10.53336
   H        3.88368       -18.90337         9.59216
   H        5.71204       -18.44833         7.73292
   H        1.86013       -18.10546         5.80795
*
