# ORCA input file
# SCF done       -155.211251003695          0.000332313025
! CAM-B3LYP def2-SVP def2/J RIJCOSX Grid4 TightSCF
%maxcore 5000
%tddft
    Mode sTDDFT
    Ethresh 5.0
    maxcore 5000
end

%pal
  nprocs 6
  end
* xyz 0 1
   C        2.18227        -0.30967        -1.50377
   S        1.15019        -1.54924        -2.04304
   C        1.02307        -2.25495        -0.46095
   C        1.78336        -1.51866         0.45753
   C        2.44879        -0.39946        -0.15250
   C        3.26278         0.45126         0.62593
   C        3.41199         0.19610         1.96423
   C        4.22591         1.03428         2.76223
   N        4.88938         1.72228         3.39369
   C        2.74969        -0.91993         2.57361
   C        2.92704        -1.15526         3.95615
   N        3.05816        -1.36483         5.07513
   C        1.95146        -1.75776         1.83234
   C        0.24376        -3.40845        -0.21029
   C       -0.44869        -4.09408        -1.14895
   C       -1.22944        -5.25586        -0.84827
   C       -1.91703        -5.95991        -1.85427
   N       -2.66237        -7.00734        -1.60384
   C       -2.75936        -7.42353        -0.32748
   C       -2.04411        -6.73662         0.67551
   N       -1.30777        -5.68560         0.42517
   C       -3.59084        -8.54912        -0.04342
   S       -3.82694        -9.09157         1.58257
   C       -4.89295       -10.37506         1.10805
   C       -5.05318       -10.38452        -0.29116
   C       -4.31370        -9.34757        -0.94278
   C       -4.36247        -9.22461        -2.34296
   C       -5.11819       -10.11094        -3.07242
   C       -5.17270       -10.00086        -4.48178
   N       -5.20855        -9.90210        -5.62255
   C       -5.85192       -11.15095        -2.42384
   C       -6.60648       -12.05980        -3.20095
   N       -7.21540       -12.81141        -3.81498
   C       -5.81936       -11.27940        -1.05435
   C       -5.50093       -11.24098         2.03522
   C       -5.22959       -11.26125         3.37124
   C       -5.84430       -12.09272         4.33060
   S       -4.99287       -12.43751         5.80163
   C       -6.18627       -13.56296         6.36087
   C       -7.27646       -13.59629         5.47343
   C       -7.08405       -12.76090         4.32189
   C       -8.12725       -12.60751         3.39478
   C       -9.30774       -13.29367         3.56579
   C      -10.35689       -13.13332         2.63181
   N      -11.19116       -12.98810         1.86005
   C       -9.49574       -14.13181         4.70398
   C      -10.72667       -14.80481         4.88183
   N      -11.71245       -15.36603         5.04249
   C       -8.50372       -14.25867         5.64824
   C       -5.91963       -14.27679         7.55605
   C       -6.47638       -15.45478         7.93065
   C       -6.18363       -16.13043         9.14827
   S       -6.93111       -17.68056         9.45629
   C       -6.15991       -17.83961        10.99688
   C       -5.36241       -16.72257        11.23629
   C       -5.38035       -15.76920        10.20010
   N       -4.57229       -16.49296        12.39873
   O       -4.55521       -17.33138        13.27797
   O       -3.95041       -15.44969        12.43779
   C       -6.38177       -18.98923        11.82515
   C       -7.17481       -20.00576        11.48559
   H        2.54674         0.42464        -2.19427
   H        3.76093         1.29126         0.16597
   H        1.46110        -2.59279         2.30880
   H        0.20187        -3.76665         0.80886
   H       -0.43216        -3.77723        -2.18345
   H       -1.85883        -5.65575        -2.89131
   H       -2.08086        -7.06232         1.70794
   H       -3.80484        -8.43714        -2.82320
   H       -6.37881       -12.07256        -0.58198
   H       -6.19643       -11.95571         1.62183
   H       -4.42787       -10.63127         3.73783
   H       -8.03435       -11.91941         2.57011
   H       -8.69762       -14.83353         6.53878
   H       -5.15192       -13.84493         8.18422
   H       -7.16421       -15.96752         7.27547
   H       -4.81332       -14.85861        10.25709
   H       -5.85630       -18.98894        12.76946
   H       -7.70743       -20.02460        10.54772
   H       -7.31302       -20.84773        12.13944
*
