# ORCA input file
# SCF done       -179.396738790941          0.000634585843
! CAM-B3LYP def2-SVP def2/J RIJCOSX Grid4 TightSCF
%maxcore 5000
%tddft
    Mode sTDDFT
    Ethresh 5.0
    maxcore 5000
end

%pal
  nprocs 6
  end
* xyz 0 1
   C       -3.81640        -1.28373         7.04287
   S       -4.38486        -1.55795         5.46527
   C       -3.65256        -3.13340         5.37514
   C       -2.93984        -3.40360         6.55461
   C       -3.05633        -2.33587         7.51330
   C       -2.41519        -2.42948         8.76700
   C       -1.65226        -3.53194         9.05177
   C       -1.00260        -3.64800        10.30336
   N       -0.48660        -3.72869        11.32283
   C       -1.48269        -4.56650         8.07666
   C       -0.64699        -5.66737         8.37186
   N        0.02418        -6.57103         8.58702
   C       -2.11115        -4.49782         6.85474
   C       -3.85878        -3.89512         4.20140
   C       -3.73803        -5.24748         4.09207
   C       -3.89669        -6.00457         2.91106
   S       -4.29394        -7.68521         3.05942
   C       -4.43277        -7.92184         1.34223
   C       -4.08240        -6.73513         0.66182
   C       -3.78431        -5.65011         1.55192
   C       -3.33705        -4.42626         1.02989
   C       -3.22907        -4.25620        -0.33201
   C       -2.78699        -3.01860        -0.85362
   N       -2.43401        -2.00417        -1.25229
   C       -3.52285        -5.33297        -1.21628
   C       -3.36638        -5.16073        -2.61070
   N       -3.25043        -5.04723        -3.74498
   C       -3.91944        -6.55533        -0.71964
   C       -4.84776        -9.18694         0.89212
   C       -5.33317        -9.48963        -0.35131
   C       -5.69078       -10.75423        -0.84627
   S       -6.60591       -10.78223        -2.32614
   C       -6.73144       -12.51665        -2.36377
   C       -6.07992       -13.06133        -1.23132
   C       -5.46391       -12.07200        -0.39688
   C       -4.68945       -12.48409         0.69808
   C       -4.60577       -13.81958         1.02453
   C       -3.82330       -14.22723         2.12918
   N       -3.18496       -14.53534         3.02931
   C       -5.31324       -14.79036         0.26134
   C       -5.27253       -16.15248         0.63660
   N       -5.25389       -17.26289         0.91898
   C       -6.02424       -14.41071        -0.85545
   C       -7.31910       -13.18295        -3.45141
   S       -6.94856       -14.85355        -3.78937
   C       -7.85791       -14.87858        -5.26603
   C       -8.46062       -13.62396        -5.48445
   C       -8.16269       -12.66751        -4.46271
   C       -8.74313       -11.39262        -4.53038
   C       -9.55178       -11.05870        -5.59428
   C      -10.13790        -9.77298        -5.64971
   N      -10.60388        -8.72666        -5.67105
   C       -9.80948       -11.99829        -6.63362
   C      -10.62608       -11.62550        -7.72652
   N      -11.28050       -11.33736        -8.62133
   C       -9.27690       -13.26574        -6.56718
   C       -7.93509       -16.02613        -6.07118
   C       -7.24717       -17.17645        -5.80685
   C       -7.24501       -18.37707        -6.54082
   S       -5.94728       -19.49262        -6.23232
   C       -6.43623       -20.58165        -7.47484
   C       -7.62583       -20.14425        -8.06995
   C       -8.09319       -18.89247        -7.54019
   C       -9.31940       -18.37443        -7.98476
   C      -10.04426       -19.04287        -8.94512
   C      -11.27932       -18.51558        -9.38645
   N      -12.27611       -18.06732        -9.73075
   C       -9.57748       -20.28399        -9.47289
   C      -10.35376       -20.96917       -10.43652
   N      -10.96290       -21.53818       -11.22232
   C       -8.39820       -20.82932        -9.02646
   C       -5.61174       -21.72637        -7.74418
   C       -5.49076       -22.35650        -8.91263
   H       -4.05838        -0.37356         7.55432
   H       -2.52142        -1.63182         9.48644
   H       -1.93259        -5.27385         6.12786
   H       -4.22558        -3.33159         3.35458
   H       -3.58966        -5.83224         4.98947
   H       -3.03614        -3.62523         1.68511
   H       -4.06019        -7.37373        -1.40608
   H       -4.83971        -9.95493         1.65216
   H       -5.53955        -8.67600        -1.03294
   H       -4.13217       -11.77039         1.28128
   H       -6.54793       -15.16575        -1.41864
   H       -8.58419       -10.66597        -3.75027
   H       -9.49539       -13.97511        -7.35046
   H       -8.54303       -15.94483        -6.95821
   H       -6.57213       -17.16470        -4.95801
   H       -9.72805       -17.47426        -7.55571
   H       -8.08869       -21.79812        -9.38361
   H       -5.00397       -22.04640        -6.90658
   H       -6.00198       -22.03819        -9.80391
   H       -4.83527       -23.20313        -9.01459
*
