# ORCA input file
# SCF done       -161.227034235752          0.000845956296
! CAM-B3LYP def2-SVP def2/J RIJCOSX Grid4 TightSCF
%maxcore 5000
%tddft
    Mode sTDDFT
    Ethresh 5.0
    maxcore 5000
end

%pal
  nprocs 6
  end
* xyz 0 1
   C        1.03443         1.62066        -0.05730
   C        0.12583         1.12964        -0.99553
   C        0.55823         0.88791        -2.32445
   C        1.86611         1.13064        -2.71055
   C        2.74418         1.61679        -1.76286
   C        2.33161         1.85845        -0.45121
   S       -0.76358         0.28598        -3.26893
   C       -1.77665         0.41100        -1.81241
   N       -1.17800         0.84878        -0.76497
   C       -3.15305         0.04245        -1.86735
   S       -3.91262        -0.56888        -3.32789
   C       -5.37955        -0.65460        -2.36191
   N       -5.19037        -0.25296        -1.13337
   N       -3.97769         0.12583        -0.86418
   C       -6.61583        -1.10257        -2.90019
   C       -7.74605        -1.13683        -2.15238
   C       -8.99628        -1.55899        -2.67270
   N      -10.15995        -1.57545        -1.94126
   C      -10.32804        -1.12813        -0.57933
   C      -10.39797         0.39420        -0.49057
   C      -11.25289        -2.02890        -2.69963
   O      -12.37532        -2.15564        -2.25361
   C      -10.69197        -2.30290        -4.00582
   C       -9.30415        -2.01917        -3.95185
   C       -8.74050        -2.31427        -5.25109
   O       -7.60985        -2.22713        -5.68764
   N       -9.83701        -2.75339        -6.01379
   C       -9.66982        -3.20888        -7.37329
   C       -9.69685        -4.73227        -7.47037
   C      -11.00302        -2.74410        -5.28851
   C      -12.27251        -3.09404        -5.82667
   C      -13.40773        -2.97277        -5.10596
   C      -14.72467        -3.31091        -5.57425
   C      -15.84008        -2.49809        -5.27268
   C      -15.67054        -1.16030        -4.66894
   O      -14.65400        -0.59793        -4.39684
   S      -17.28380        -0.40365        -4.46713
   C      -18.12730        -1.75315        -5.29751
   O      -19.28637        -1.69233        -5.57540
   C      -17.15316        -2.82959        -5.59821
   C      -17.47726        -4.03588        -6.26020
   C      -16.35699        -4.79449        -6.63640
   C      -15.04420        -4.46046        -6.31499
   C      -14.18415        -5.56249        -6.81139
   O      -13.00388        -5.72286        -6.74284
   O      -15.00465        -6.47777        -7.42017
   C      -16.32230        -6.08786        -7.35803
   O      -17.20340        -6.73673        -7.82766
   C      -18.80014        -4.51186        -6.57027
   C      -19.88409        -4.38919        -5.78183
   C      -21.15661        -4.91049        -6.16551
   N      -21.42208        -5.51823        -7.26815
   C      -22.72057        -5.88215        -7.36278
   C      -23.30613        -6.55436        -8.43714
   C      -24.64778        -6.85322        -8.38109
   C      -25.42238        -6.49542        -7.27529
   C      -24.86918        -5.83170        -6.19937
   C      -23.51827        -5.52662        -6.24386
   S      -22.54191        -4.71507        -5.06721
   H        0.69947         1.80173         0.95091
   H        2.18304         0.94305        -3.72451
   H        3.76817         1.81333        -2.04206
   H        3.04582         2.23867         0.26327
   H       -6.62434        -1.40804        -3.93729
   H       -7.68853        -0.82319        -1.12048
   H       -9.51373        -1.51771         0.03714
   H      -11.27166        -1.55994        -0.23428
   H       -9.47917         0.84872        -0.85405
   H      -10.55172         0.69491         0.54187
   H      -11.22860         0.76245        -1.08786
   H       -8.69346        -2.83502        -7.69515
   H      -10.44231        -2.76354        -8.00675
   H       -8.90697        -5.15605        -6.85497
   H       -9.53154        -5.03428        -8.50090
   H      -10.65040        -5.13424        -7.13683
   H      -12.30704        -3.41861        -6.85501
   H      -13.35515        -2.55888        -4.10559
   H      -18.89867        -5.09160        -7.47813
   H      -19.84226        -3.90845        -4.81589
   H      -22.69477        -6.82365        -9.28300
   H      -25.11460        -7.37317        -9.20388
   H      -26.47291        -6.74318        -7.26159
   H      -25.46610        -5.55535        -5.34446
*
