# ORCA input file
# SCF done       -196.246749858647          0.000590976837
! CAM-B3LYP def2-SVP def2/J RIJCOSX Grid4 TightSCF
%maxcore 5000
%tddft
    Mode sTDDFT
    Ethresh 5.0
    maxcore 5000
end

%pal
  nprocs 6
  end
* xyz 0 1
   C        4.00111         4.36900        -2.18924
   C        3.26155         5.45426        -2.54409
   S        3.61447         5.94811        -4.15975
   C        4.78370         4.66391        -4.36544
  Cl        5.63632         4.47116        -5.81643
   C        4.87358         3.91623        -3.23006
   C        5.62415         2.73742        -2.77985
   O        6.39833         2.07044        -3.42522
   C        5.15345         2.49993        -1.38028
   C        4.17346         3.51789        -1.02933
   C        3.55090         3.71529         0.17528
   C        2.62631         4.76578         0.35620
   N        1.86764         5.61085         0.51869
   C        3.75206         2.96344         1.35025
   N        3.87844         2.41252         2.34963
   C        5.46453         1.42562        -0.59833
   C        6.47047         0.44105        -0.77159
   C        6.43161        -0.79286        -0.15320
   C        7.58994        -1.54167        -0.52067
   C        8.39376        -0.64933        -1.37005
   C        7.72163         0.52259        -1.51681
   C        9.67191        -0.90076        -1.88931
   N       10.73122        -1.04320        -2.30747
   C        7.89315        -2.83495        -0.16012
   C        9.02540        -3.60266        -0.54757
   C        8.97544        -4.83226         0.07740
   C        7.75618        -4.87974         0.87475
   C        7.09467        -3.70304         0.72784
   C        5.86125        -3.41174         1.32129
   N        4.84640        -3.22102         1.82445
   C        9.93371        -5.86098        -0.11562
   N       10.20568        -6.92539         0.71213
   C        9.71063        -7.16723         2.04828
   C        9.94785        -5.99551         2.99317
   C       11.19074        -7.77253         0.16274
   O       11.64849        -8.73794         0.74720
   C       11.48136        -7.19620        -1.12609
   C       10.73963        -6.00085        -1.24518
   C       11.01740        -5.44033        -2.55202
   O       10.58754        -4.47495        -3.13471
   N       11.95779        -6.33990        -3.12615
   C       12.49065        -6.05421        -4.43812
   C       13.72975        -5.16579        -4.34747
   C       12.22104        -7.38812        -2.30011
   C       13.03058        -8.54150        -2.54487
   C       14.08360        -8.63207        -3.37768
   C       14.84507        -9.83527        -3.65494
   C       15.22727       -10.03528        -4.98852
   C       14.99792        -9.17982        -6.17653
   O       14.43505        -8.12218        -6.25341
   O       15.53679        -9.79937        -7.24869
   C       16.11168       -11.04625        -6.89705
   C       15.88175       -11.17900        -5.42736
   C       16.18009       -12.20187        -4.54645
   C       15.82614       -12.02200        -3.22421
   C       15.20064       -10.85801        -2.74326
   C       15.02103       -10.79689        -1.30906
   C       14.98243        -9.69461        -0.52719
   C       14.77532        -9.81940         0.86765
   C       14.44253        -8.90737         1.82266
   C       14.21798        -9.47385         3.19558
   O       14.42606       -10.61487         3.53321
   C       13.72094        -8.35675         3.99796
   C       13.36866        -8.13098         5.29377
   S       12.96528        -6.44667         5.53199
   C       13.28138        -6.07547         3.87579
   C       13.65513        -7.18458         3.17979
   C       14.08188        -7.50269         1.82521
   C       14.04117        -6.56120         0.82385
   C       13.31751        -5.36272         1.00523
   N       12.65759        -4.42771         1.09790
   C       14.63175        -6.58448        -0.44683
   N       15.12709        -6.47632        -1.47920
  Cl       13.31035        -9.24067         6.57180
   H        2.53206         5.99710        -1.97664
   H        4.85225         1.26657         0.28271
   H        5.63718        -1.15443         0.47089
   H        8.06105         1.37856        -2.06521
   H        9.79855        -3.26733        -1.20960
   H        7.40020        -5.72577         1.43142
   H       10.26222        -8.04667         2.39749
   H        8.64863        -7.43125         2.01177
   H       10.97965        -5.66420         2.92067
   H        9.74672        -6.30546         4.01498
   H        9.30572        -5.15145         2.75581
   H       11.70516        -5.51835        -4.97870
   H       12.70955        -6.98557        -4.96125
   H       13.44843        -4.16923        -4.01642
   H       14.19404        -5.09749        -5.32647
   H       14.44976        -5.57063        -3.63983
   H       12.75199        -9.38859        -1.92955
   H       14.38124        -7.78150        -3.97101
   H       17.17589       -11.03218        -7.15801
   H       15.62205       -11.83652        -7.47691
   H       16.66976       -13.10452        -4.87541
   H       16.06265       -12.79994        -2.51312
   H       14.96735       -11.76327        -0.81989
   H       15.08717        -8.71873        -0.96442
   H       14.83447       -10.83226         1.26007
   H       13.19111        -5.05790         3.55045
*
