# ORCA input file
# SCF done       -158.371392317372          0.000353903711
! CAM-B3LYP def2-SVP def2/J RIJCOSX Grid4 TightSCF
%maxcore 5000
%tddft
    Mode sTDDFT
    Ethresh 5.0
    maxcore 5000
end

%pal
  nprocs 6
  end
* xyz 0 1
   C        0.29817         1.24577        -2.97426
   C       -0.17608         2.48487        -2.67202
   S        0.88405         3.31080        -1.58979
   C        1.99456         1.96111        -1.54211
  Cl        3.40623         2.00914        -0.60973
   C        1.53943         0.94395        -2.32738
   C        1.98750        -0.40353        -2.69351
   O        3.01107        -0.95304        -2.36408
   C        0.93682        -0.90389        -3.64090
   C       -0.10130         0.10874        -3.77686
   C       -1.27898         0.01806        -4.47038
   C       -2.20136         1.08606        -4.49001
   N       -2.95794         1.94776        -4.52034
   C       -1.71738        -1.10027        -5.20719
   N       -2.13501        -1.97869        -5.81726
   C        1.03124        -2.03107        -4.39856
   C        1.95358        -3.10327        -4.24788
   C        2.56861        -3.57613        -3.11360
   C        3.39024        -4.69552        -3.45986
   C        3.22724        -4.89095        -4.91172
   C        2.34717        -3.96019        -5.36170
   C        3.84649        -5.87081        -5.69615
   N        4.34790        -6.66419        -6.35845
   C        4.18419        -5.42918        -2.61524
   C        5.09638        -6.46751        -2.96779
   C        5.72144        -6.92561        -1.83061
   C        5.18915        -6.18283        -0.68974
   C        4.28067        -5.28654        -1.14680
   C        3.53376        -4.41957        -0.33769
   N        2.92129        -3.73925         0.35509
   C        6.71786        -7.93251        -1.78426
   S        7.25727        -8.64716        -3.28754
   C        8.40144        -9.69736        -2.49432
   C        8.35334        -9.48331        -1.12416
   C        7.41480        -8.50134        -0.72625
   C        7.44645        -8.33489         0.73515
   O        6.79787        -7.58587         1.42202
   C        8.48910        -9.31093         1.24854
   C        9.10843        -9.97968         0.03337
   O       10.05018       -10.73018         0.04782
   C        9.19534       -10.58755        -3.26261
   C        9.98223       -11.62679        -2.81808
   C       10.62475       -12.22937        -3.94210
   C       10.17379       -11.48005        -5.12736
   C        9.30346       -10.52309        -4.71242
   C       10.53570       -11.71820        -6.45874
   N       10.81520       -11.88597        -7.55991
   C       11.49874       -13.28899        -3.93013
   C       12.27733       -13.78414        -5.01323
   C       13.05989       -14.82031        -4.56168
   C       12.76074       -15.03784        -3.14911
   C       11.83498       -14.13010        -2.75692
   C       11.24557       -14.08616        -1.48675
   N       10.76844       -14.11991        -0.44309
   C       14.00960       -15.57716        -5.29305
   S       14.91823       -16.87194        -4.55171
   C       15.74388       -17.20299        -6.00118
   C       15.36109       -16.37146        -7.02570
   C       14.36431       -15.43266        -6.62955
   O       13.81812       -14.50620        -7.42590
   C       15.87597       -16.40929        -8.33386
   N       16.25358       -16.38527        -9.41624
   H       -1.06849         2.97344        -3.00963
   H        0.35256        -2.13646        -5.23788
   H        2.45700        -3.19457        -2.11953
   H        2.00273        -3.84017        -6.37263
   H        5.27226        -6.81446        -3.96766
   H        5.48411        -6.34118         0.33034
   H        8.02393       -10.05883         1.89564
   H        9.24255        -8.80477         1.85555
   H       10.12479       -11.92217        -1.79762
   H        8.78204        -9.81721        -5.33288
   H       12.27245       -13.38685        -6.00743
   H       13.20855       -15.80463        -2.54366
   H       16.47310       -17.98788        -6.04707
   H       14.17468       -14.55937        -8.32403
*
