# ORCA input file
# SCF done       -176.720353743410          0.000337187912
! CAM-B3LYP def2-SVP def2/J RIJCOSX Grid4 TightSCF
%maxcore 5000
%tddft
    Mode sTDDFT
    Ethresh 5.0
    maxcore 5000
end

%pal
  nprocs 6
  end
* xyz 0 1
   O       -2.86021         3.72403         4.85467
   C       -2.38511         3.19003         3.69525
   N       -2.60595         1.91470         3.59580
   C       -3.26126         1.56583         4.74077
   C       -3.40978         2.69974         5.50888
   C       -3.69250         0.19622         5.00482
   O       -4.27743        -0.15594         5.99538
   C       -1.74120         4.03324         2.74257
   S       -1.61485         5.74556         3.02925
   C       -1.17407         3.71052         1.53380
   C       -0.91995         2.49309         0.73519
   O       -1.17850         1.34026         0.94236
   N       -0.26721         2.96440        -0.40582
   C        0.21201         2.08272        -1.44987
   C        1.62022         1.58439        -1.14480
   C       -0.07673         4.33356        -0.42947
   O        0.45044         4.93704        -1.33568
   C       -0.65645         4.82462         0.83410
   C       -0.80674         6.02760         1.50016
   C       -0.43510         7.35420         1.16132
   C        0.09824         7.70020        -0.03845
   C        0.46510         9.03287        -0.35210
   N        0.92209         9.41842        -1.58798
   C        1.02155         8.58693        -2.76462
   C       -0.34056         8.37010        -3.41808
   C        1.21736        10.79151        -1.63558
   O        1.59459        11.36704        -2.63453
   C        0.94920        11.26116        -0.28974
   C        0.47015        10.16342         0.46588
   C        0.18148        10.63541         1.80243
   O       -0.26035        10.07550         2.78661
   N        0.51421        12.00000         1.76695
   C        0.38388        12.83466         2.93655
   C        1.72610        13.04875         3.63208
   C        0.97935        12.38416         0.53224
   C        1.38072        13.71085         0.21645
   C        1.89656        14.03167        -0.99005
   C        2.30294        15.34232        -1.41836
   C        1.62455        16.55977        -1.18491
   C        0.30978        16.66374        -0.51551
   O       -0.37779        15.79501        -0.06762
   S       -0.20346        18.38311        -0.47244
   C        1.27650        18.94865        -1.30645
   O        1.50785        20.10491        -1.49263
   C        2.10208        17.77837        -1.67573
   C        3.27320        17.90600        -2.44964
   C        3.91811        16.68674        -2.71602
   C        3.45062        15.47772        -2.21851
   C        4.38830        14.41712        -2.66071
   O        4.44089        13.26435        -2.37359
   O        5.30574        15.02032        -3.49150
   C        5.08855        16.37062        -3.58195
   O        5.75679        17.07534        -4.27090
   C        3.72151        19.18235        -2.95551
   C        5.00451        19.56366        -3.05076
   C        5.36983        20.84202        -3.58479
   N        4.58295        21.75113        -4.08367
   C        5.39840        22.77482        -4.46862
   C        6.69634        22.41821        -4.16849
   O        6.67862        21.20860        -3.61308
   C        4.89048        23.99797        -5.08020
   O        5.57562        24.92229        -5.43208
   H       -3.85879         2.87254         6.46546
   H       -3.42304        -0.49677         4.19043
   H        0.20015         2.64683        -2.38532
   H       -0.48292         1.24231        -1.51139
   H        2.30892         2.42279        -1.06833
   H        1.95762         0.92657        -1.94042
   H        1.62740         1.03256        -0.20785
   H       -0.60838         8.10976         1.91693
   H        0.25789         6.94168        -0.79065
   H        1.47534         7.62904        -2.49990
   H        1.68246         9.11767        -3.45512
   H       -1.01849         7.85888        -2.73850
   H       -0.22361         7.76475        -4.31212
   H       -0.77869         9.32528        -3.69783
   H       -0.29659        12.30661         3.61041
   H       -0.06951        13.78837         2.65358
   H        2.14181        12.09198         3.93841
   H        1.58851        13.66586         4.51561
   H        2.43737        13.53775         2.96971
   H        1.27650        14.45760         0.98873
   H        2.08921        13.23879        -1.70421
   H        2.95959        19.89653        -3.23567
   H        5.82765        18.94939        -2.72023
   H        7.63186        22.92190        -4.30241
   H        3.79244        23.99635        -5.19004
*
