# ORCA input file
# SCF done       -183.479661673509          0.000647828278
! CAM-B3LYP def2-SVP def2/J RIJCOSX Grid4 TightSCF
%maxcore 5000
%tddft
    Mode sTDDFT
    Ethresh 5.0
    maxcore 5000
end

%pal
  nprocs 6
  end
* xyz 0 1
   C        3.08438         4.82059        -5.58441
   C        3.46801         5.80539        -6.45691
   C        4.29966         5.58556        -7.57593
   N        4.96500         5.47754        -8.50514
   C        3.14455         7.17565        -6.35791
   N        2.95243         8.30799        -6.34109
   C        3.52876         3.43416        -5.63846
   C        3.07314         2.76979        -4.46543
   C        3.35024         1.45463        -4.22510
   C        4.10766         0.72745        -5.17002
   C        4.56096         1.38264        -6.35150
   C        4.26001         2.74630        -6.57082
   C        5.31352         0.64711        -7.28966
   C        5.60637        -0.67173        -7.07240
   C        5.15966        -1.31578        -5.90881
   C        4.42646        -0.63119        -4.97778
   C        2.30314         3.70695        -3.63176
   O        1.81348         3.45726        -2.55000
   C        2.24635         4.97676        -4.40235
   C        1.47456         6.07940        -4.17168
   C        0.64169         6.43255        -3.08534
   S       -0.28379         7.91052        -3.25707
   C       -0.95372         7.75813        -1.67148
   C       -0.46428         6.59733        -1.04681
   C        0.42301         5.86549        -1.84226
   C       -0.80240         6.18178         0.25248
   N       -1.05746         5.81865         1.31103
   C       -1.84327         8.75524        -1.20816
   C       -2.40639         8.79747         0.03012
   C       -3.26803         9.84514         0.43221
   N       -3.81023         9.94277         1.69313
   C       -3.57944         9.04641         2.80152
   C       -2.22647         9.29088         3.46406
   C       -4.61688        11.08292         1.83314
   O       -5.19255        11.37806         2.86210
   C       -4.56882        11.71901         0.53383
   C       -3.73231        10.93701        -0.30123
   C       -3.68675        11.56784        -1.60070
   O       -3.10655        11.27777        -2.62906
   N       -4.50255        12.70352        -1.46490
   C       -4.75310        13.57530        -2.58706
   C       -6.10460        13.28841        -3.23665
   C       -5.03722        12.80648        -0.20130
   C       -5.88330        13.87192         0.20741
   C       -6.38644        13.96220         1.46061
   C       -7.21798        15.02937         1.94083
   C       -7.84406        15.99670         1.13795
   N       -8.57529        16.96777         1.63431
   C       -8.75161        16.99647         2.95626
   N       -8.19367        16.14383         3.81554
   C       -7.44808        15.18705         3.32109
   C       -9.55211        18.08985         3.48055
   C      -10.37937        17.99739         4.53992
   C      -11.05978        19.09375         5.22535
   C      -11.11342        20.40018         4.82627
   C      -11.78712        21.41761         5.53764
   N      -12.31526        22.29016         6.06386
   C      -10.53474        20.92655         3.65040
   N      -10.10014        21.44081         2.72078
   C      -11.67321        18.54478         6.42697
   C      -11.50024        17.13055         6.43073
   C      -10.77418        16.71755         5.21738
   O      -10.62543        15.59343         4.80498
   C      -11.98078        16.34829         7.44152
   C      -12.65473        16.95600         8.52381
   C      -12.82732        18.37096         8.53084
   C      -12.32965        19.15412         7.46591
   C      -13.50067        18.96784         9.61700
   C      -13.97951        18.20596        10.64730
   C      -13.80873        16.81303        10.63946
   C      -13.16103        16.20154         9.60065
   H        2.99523         0.97576        -3.32459
   H        4.61313         3.21060        -7.47762
   H        5.65640         1.14790        -8.18313
   H        6.18446        -1.22620        -7.79633
   H        5.39936        -2.35711        -5.75396
   H        4.07986        -1.12181        -4.08004
   H        1.47551         6.83061        -4.95328
   H        0.88954         4.95003        -1.52481
   H       -2.06722         9.54597        -1.91331
   H       -2.19407         8.02039         0.74773
   H       -3.65903         8.01135         2.45873
   H       -4.38037         9.24432         3.51932
   H       -1.41176         9.12528         2.76296
   H       -2.10425         8.61134         4.30239
   H       -2.16932        10.31291         3.83084
   H       -3.95278        13.37849        -3.30591
   H       -4.68653        14.61814        -2.26512
   H       -6.13178        12.26300        -3.59671
   H       -6.25709        13.95636        -4.07977
   H       -6.91769        13.42644        -2.52722
   H       -6.10010        14.63711        -0.52368
   H       -6.13842        13.19674         2.18494
   H       -7.76455        15.98461         0.05830
   H       -6.99141        14.51555         4.03728
   H       -9.42761        19.02405         2.94985
   H      -11.84036        15.27790         7.41789
   H      -12.47663        20.22187         7.50123
   H      -13.63014        20.04015         9.61792
   H      -14.49281        18.67203        11.47494
   H      -14.19318        16.22752        11.46115
   H      -13.02692        15.12986         9.58920
*
