# ORCA input file
# SCF done       -199.234300090658          0.000758738307
! CAM-B3LYP def2-SVP def2/J RIJCOSX Grid4 TightSCF
%maxcore 5000
%tddft
    Mode sTDDFT
    Ethresh 5.0
    maxcore 5000
end

%pal
  nprocs 6
  end
* xyz 0 1
   C       -0.76857         0.13653        -1.93027
   C       -1.61425        -0.59129        -1.13550
   C       -2.18061        -1.82813        -1.51280
   N       -2.67384        -2.83553        -1.75610
   C       -2.04186        -0.23870         0.16261
   N       -2.43115        -0.03331         1.22324
   C       -0.31723        -0.25359        -3.26250
   C        0.56047         0.75333        -3.76011
   C        1.15082         0.65828        -4.98796
   C        0.88590        -0.47225        -5.79229
   C        0.00859        -1.48351        -5.30418
   C       -0.58843        -1.35594        -4.02844
   C       -0.24842        -2.60807        -6.11382
   C        0.33271        -2.73015        -7.34699
   C        1.19633        -1.73424        -7.82652
   C        1.46714        -0.62899        -7.06582
   C        0.68640         1.81646        -2.75828
   O        1.35261         2.83560        -2.85396
   C       -0.14629         1.41223        -1.61783
   C       -0.28837         2.11710        -0.45349
   C        0.29788         3.33055        -0.05875
   S        1.34416         4.34759        -1.00754
   C        1.50036         5.48726         0.29258
   C        0.81213         5.06408         1.43218
   C        0.10850         3.87786         1.22184
   S       -1.02613         3.15442         2.34609
   C       -1.28839         4.38665         3.62130
   O       -2.34124         4.39564         4.18114
   C       -0.12923         5.23165         4.09477
   O       -0.04514         5.52605         5.25580
   S        1.11762         5.79795         2.99378
   C        2.15886         6.74124         0.16854
   N        3.24948         7.01361        -0.61895
   C        3.99070         6.10047        -1.45637
   C        3.50024         6.13043        -2.90070
   C        3.65198         8.35869        -0.50392
   O        4.61405         8.81990        -1.08678
   C        2.69869         8.94547         0.40691
   C        1.79456         7.92644         0.80102
   C        0.78356         8.52866         1.64119
   O       -0.21297         8.07006         2.16361
   N        1.17545         9.87163         1.74768
   C        0.45688        10.78612         2.60261
   C        1.13126        10.92905         3.96471
   C        2.31515        10.13517         1.02474
   C        2.93936        11.40769         0.97971
   C        4.05655        11.64191         0.24653
   C        4.74289        12.88609         0.20598
   S        6.11719        13.06323        -0.84631
   C        6.37259        14.68800        -0.33045
   C        7.55170        15.46315        -0.77380
   O        8.09122        16.27240        -0.06710
   O        8.01484        15.18656        -1.99584
   C        5.43789        15.07604         0.61803
   C        4.52936        14.04542         0.92006
   C        5.37601        16.37367         1.25605
   C        5.53443        17.56391         0.64519
   C        5.59346        18.87288         1.29010
   C        5.28548        19.15818         2.59120
   C        5.36920        20.44847         3.15934
   N        5.41197        21.46983         3.68027
   C        4.79631        18.22934         3.53462
   N        4.37066        17.53602         4.34483
   C        6.01405        19.83504         0.28267
   C        6.07191        19.18271        -0.98326
   C        5.72290        17.76745        -0.82408
   O        5.57422        16.94474        -1.70279
   C        6.42992        19.84760        -2.12185
   C        6.76154        21.21770        -2.04388
   C        6.71591        21.87545        -0.77979
   C        6.33711        21.16380         0.38035
   C        7.05377        23.24287        -0.71318
   C        7.41732        23.92952        -1.83933
   C        7.46047        23.28160        -3.08335
   C        7.14047        21.95489        -3.18340
   H        1.81270         1.43549        -5.34023
   H       -1.24661        -2.14003        -3.69037
   H       -0.91366        -3.37247        -5.74019
   H        0.12974        -3.59561        -7.95956
   H        1.64611        -1.84692        -8.80149
   H        2.13153         0.14097        -7.42985
   H       -0.93206         1.69150         0.30743
   H        3.91810         5.09224        -1.04433
   H        5.03341         6.43084        -1.42434
   H        2.46671         5.80136        -2.96843
   H        4.11217         5.46752        -3.50461
   H        3.58151         7.13983        -3.29588
   H       -0.54119        10.35888         2.73276
   H        0.36221        11.75517         2.10563
   H        1.16442         9.96392         4.46394
   H        0.56693        11.61998         4.58450
   H        2.14876        11.29983         3.86112
   H        2.49944        12.20186         1.56387
   H        4.47511        10.84120        -0.34955
   H        7.43498        14.59635        -2.49628
   H        3.73605        14.16688         1.63516
   H        5.17452        16.33825         2.31892
   H        6.46680        19.33001        -3.06883
   H        6.31772        21.68839         1.32247
   H        7.01876        23.73721         0.24649
   H        7.67418        24.97637        -1.77816
   H        7.74937        23.83935        -3.96155
   H        7.17331        21.45068        -4.13804
*
