# ORCA input file
# SCF done       -156.974978023073          0.000732735688
! CAM-B3LYP def2-SVP def2/J RIJCOSX Grid4 TightSCF
%maxcore 5000
%tddft
    Mode sTDDFT
    Ethresh 5.0
    maxcore 5000
end

%pal
  nprocs 6
  end
* xyz 0 1
   C       -1.85862         2.30031         3.32576
   C       -1.97463         2.41806         4.70255
   C       -2.97685         1.75484         5.39759
   C       -3.89769         0.95813         4.73438
   C       -3.79184         0.83186         3.35868
   C       -2.76703         1.50093         2.64884
   C       -2.87915         1.17629         1.23361
   C       -2.16352         1.73464         0.21289
   C       -1.18373         2.73646         0.39312
   N       -0.37885         3.55000         0.47141
   C       -2.32052         1.43110        -1.15844
   N       -2.38942         1.24229        -2.28797
   C       -3.90483         0.13906         1.12635
   C       -4.61115         0.10375         2.40480
   C       -5.89689        -0.32238         2.59533
   C       -6.75407        -0.73316         1.55039
   N       -7.50989        -0.99384         0.72742
   C       -6.55297        -0.28960         3.84496
   N       -7.11626        -0.29318         4.84386
   C       -4.06086        -0.71020         0.07491
   C       -4.76820        -1.94196         0.08515
   C       -4.94356        -2.87340         1.21246
   N       -5.57420        -3.96623         0.90763
   C       -5.88999        -3.85834        -0.41485
   C       -5.35832        -2.60370        -0.96647
   C       -5.67716        -2.49175        -2.36742
   S       -5.26954        -1.26290        -3.37558
   C       -6.40246        -3.70480        -2.65571
   C       -6.52515        -4.52466        -1.43038
   N       -7.21159        -5.67340        -1.68612
   C       -7.51165        -5.63272        -2.94997
   C       -7.03650        -4.42565        -3.63674
   C       -7.22134        -4.16659        -5.02154
   O       -6.75236        -3.00966        -5.56734
   C       -7.06436        -3.09359        -6.87442
   C       -7.73432        -4.34103        -7.07413
   N       -7.80301        -4.96868        -5.86582
   C       -8.18159        -4.74528        -8.32365
   C       -7.92395        -3.84878        -9.34623
   C       -7.25631        -2.60482        -9.11730
   C       -6.80558        -2.18501        -7.88156
   O       -7.16019        -1.97668       -10.30594
   C       -7.74651        -2.82767       -11.20248
   N       -8.20416        -3.92574       -10.68163
   C       -7.78591        -2.44835       -12.57924
   C       -8.30376        -3.26689       -13.51836
   C       -8.36822        -2.98991       -14.91545
   C       -7.97791        -1.86512       -15.62165
   F       -7.45271        -0.77558       -15.05453
   C       -8.18468        -1.96695       -17.00580
   F       -7.87642        -0.99806       -17.86662
   C       -8.73608        -3.17473       -17.38269
   S       -9.00342        -4.18324       -16.00977
   C       -9.06343        -3.62382       -18.69830
   N       -9.56345        -4.78451       -19.00522
   C       -9.69971        -4.77099       -20.36559
   C       -9.25645        -3.55115       -20.82387
   O       -8.85586        -2.82865       -19.77568
   C      -10.23102        -5.90707       -21.11117
   O      -10.36414        -5.93782       -22.30617
   H       -1.07089         2.81813         2.80383
   H       -1.26995         3.03353         5.24027
   H       -3.04141         1.85772         6.46978
   H       -4.66772         0.44195         5.28451
   H       -3.56372        -0.47967        -0.85909
   H       -4.54476        -2.73446         2.20277
   H       -8.05959        -6.42327        -3.42959
   H       -8.68317        -5.68247        -8.48471
   H       -6.29986        -1.24968        -7.71725
   H       -7.36654        -1.48166       -12.81030
   H       -8.69808        -4.22257       -13.20331
   H       -9.18784        -3.12736       -21.80465
   H      -10.50765        -6.75333       -20.45904
*
