# ORCA input file
# SCF done       -196.527947295138          0.000466872353
! CAM-B3LYP def2-SVP def2/J RIJCOSX Grid4 TightSCF
%maxcore 5000
%tddft
    Mode sTDDFT
    Ethresh 5.0
    maxcore 5000
end

%pal
  nprocs 6
  end
* xyz 0 1
   C       -5.39577        -1.71877        -1.26086
   C       -4.45806        -2.10838        -0.33926
   C       -3.77854        -3.34397        -0.38660
   N       -3.18620        -4.32749        -0.37649
   C       -4.05964        -1.38760         0.80768
   N       -3.68702        -0.90680         1.78253
   C       -5.87338        -2.54194        -2.36428
   C       -6.96606        -1.88044        -2.97165
   C       -7.65216        -2.40386        -4.04041
   C       -7.23192        -3.63976        -4.54184
   C       -6.13187        -4.29096        -3.93479
   C       -5.44350        -3.76356        -2.84912
   S       -5.77292        -5.80080        -4.71698
   C       -7.08872        -5.54067        -5.83138
   C       -7.76319        -4.38384        -5.63071
  Br       -7.44697        -6.81982        -7.15571
   C       -7.21270        -0.59545        -2.28875
   O       -8.12163         0.16566        -2.55919
   C       -6.14329        -0.46652        -1.27280
   C       -5.73726         0.61880        -0.54472
   C       -6.25887         1.93030        -0.35853
   C       -5.42623         2.87886         0.30226
   O       -4.19357         2.45795         0.66518
   C       -3.35782         3.31133         1.41362
   C       -5.89026         4.16266         0.51474
   C       -7.17115         4.57445         0.12710
   C       -7.99658         3.62580        -0.52446
   C       -7.53947         2.34453        -0.74505
   O       -9.23452         4.05119        -0.88650
   C      -10.09295         3.16664        -1.57234
   C       -7.61393         5.92940         0.38557
   C       -7.02980         6.70419         1.35896
   C       -7.33478         8.03416         1.64460
   C       -8.30626         8.76442         0.82158
   C       -9.02892         8.18785        -0.16532
   S       -8.92563         6.53743        -0.60933
   C       -8.29066        10.09873         1.30346
   C       -7.37970        10.20142         2.35597
   C       -7.32326        11.51177         2.88232
   C       -8.16955        12.34938         2.22941
   S       -9.07024        11.59158         0.95770
   C       -6.78491         8.91405         2.59974
   C       -5.82870         8.71134         3.62934
   C       -5.39137         7.53310         4.13728
   C       -4.42813         7.36274         5.18585
   C       -4.07404         6.04317         5.58151
   O       -4.63411         5.02590         4.86454
   C       -4.41634         3.70101         5.29370
   C       -3.19963         5.85931         6.62642
   C       -2.65920         6.93459         7.35496
   C       -2.95593         8.24818         6.91332
   C       -3.81871         8.42925         5.84922
   O       -2.32516         9.26456         7.55354
   C       -2.54412        10.58872         7.12628
   C       -1.78864         6.61920         8.43901
   C       -1.38172         7.30944         9.54294
   C       -1.82357         8.51437        10.19893
   C       -3.08043         9.06320        10.14411
   C       -3.45556        10.25131        10.79877
   N       -3.80884        11.23494        11.27570
   C       -4.15882         8.46831         9.46372
   N       -5.06982         8.00732         8.93844
   C       -0.76459         8.93556        11.11138
   C        0.20953         7.90908        11.18193
   C       -0.17446         6.81848        10.26239
   O        0.38980         5.76010        10.09595
   C        1.31387         7.99388        11.99373
   C        1.47141         9.15242        12.76284
   C        0.50079        10.17739        12.67424
   C       -0.62285        10.08714        11.86094
   S        0.89709        11.52338        13.69992
   C        2.33931        10.69887        14.23082
   C        2.51780         9.48044        13.66888
  Br        3.47333        11.52760        15.47469
   H       -8.48505        -1.87524        -4.47707
   H       -4.61003        -4.29808        -2.42558
   H       -8.60026        -4.06625        -6.22525
   H       -4.80216         0.48480        -0.01431
   H       -2.49887         2.70115         1.68789
   H       -3.85417         3.66968         2.31944
   H       -3.02150         4.16507         0.81683
   H       -5.23128         4.88542         0.96424
   H       -8.17044         1.62647        -1.23609
   H      -10.97872         3.75214        -1.81266
   H      -10.37548         2.31973        -0.94085
   H       -9.63557         2.79525        -2.49270
   H       -6.26319         6.23863         1.95611
   H       -9.75916         8.74027        -0.73629
   H       -6.69754        11.82527         3.69843
   H       -8.33325        13.39312         2.41438
   H       -5.45106         9.63331         4.05228
   H       -5.81388         6.60811         3.78121
   H       -5.01826         3.07381         4.63710
   H       -4.74502         3.55761         6.32671
   H       -3.36382         3.41531         5.20081
   H       -2.93484         4.86585         6.95161
   H       -4.06033         9.42870         5.53155
   H       -1.92832        11.21102         7.77452
   H       -3.59325        10.87812         7.24197
   H       -2.23349        10.73115         6.08690
   H       -1.30968         5.64558         8.35661
   H        2.03475         7.19252        12.03649
   H       -1.33527        10.89475        11.82553
   H        3.35207         8.83745        13.88238
*
