# ORCA input file
# SCF done       -197.529327555120          0.000431481028
! CAM-B3LYP def2-SVP def2/J RIJCOSX Grid4 TightSCF
%maxcore 5000
%tddft
    Mode sTDDFT
    Ethresh 5.0
    maxcore 5000
end

%pal
  nprocs 6
  end
* xyz 0 1
   C        0.30352         2.86956         2.81075
   C        1.01686         1.81993         2.29208
   C        2.39273         1.60960         2.52372
   N        3.50859         1.38539         2.67282
   C        0.49737         0.79336         1.47563
   N        0.15283        -0.08141         0.81611
   C        0.84623         3.90360         3.68743
   C       -0.20493         4.77324         4.07004
   C       -0.01590         5.85300         4.89768
   C        1.27898         6.09166         5.36923
   C        2.32521         5.22117         4.98051
   C        2.13089         4.12645         4.14627
   S        3.84500         5.70205         5.67047
   C        3.06590         7.04735         6.46025
   C        1.73541         7.13337         6.22186
  Br        4.08171         8.21134         7.52286
   C       -1.45393         4.32395         3.43647
   O       -2.55208         4.84017         3.56294
   C       -1.10857         3.15220         2.62691
   C       -1.96814         2.47644         1.79758
   C       -3.33156         2.68256         1.54234
   C       -4.03104         1.91036         0.60518
   C       -5.35762         2.27825         0.49876
   C       -5.68935         3.34029         1.37612
   S       -4.37269         3.88661         2.30585
   C       -7.05675         3.64828         1.18849
   C       -7.59046         2.79889         0.20203
   C       -6.54030         1.90556        -0.26133
   C       -6.64942         0.93176        -1.20970
   C       -5.55796         0.12109        -1.58790
   N       -4.67468        -0.53794        -1.90304
   C       -7.86517         0.67488        -1.87780
   N       -8.85535         0.47006        -2.41860
   C       -8.93754         3.04352        -0.05592
   C       -9.43493         4.06884         0.73049
   S       -8.21841         4.74072         1.80478
   C      -10.75197         4.59072         0.73331
   C      -11.27187         5.56678         1.56292
   C      -12.60854         5.83971         1.27500
   C      -13.10860         5.06517         0.20966
   S      -11.93761         3.99790        -0.42568
   C      -14.46070         5.41894        -0.01233
   C      -14.81789         6.41181         0.91621
   C      -13.66978         6.70042         1.76302
   C      -13.62076         7.58065         2.80577
   C      -12.44329         7.78805         3.55463
   N      -11.48182         7.95736         4.15553
   C      -14.74986         8.32603         3.20036
   N      -15.67810         8.92134         3.51757
   C      -16.13173         6.84475         0.77647
   C      -16.79108         6.19286        -0.25491
   S      -15.75578         5.01962        -1.05558
   C      -18.14207         6.37860        -0.67061
   C      -18.95015         7.34371        -0.11693
   C      -20.28490         7.56091        -0.45175
   C      -20.90618         6.82778        -1.56554
   C      -20.29761         5.83534        -2.25042
   S      -18.70725         5.28300        -1.92378
   C      -22.19923         7.39730        -1.71760
   C      -22.38243         8.40113        -0.76371
   C      -23.65752         9.00094        -0.86259
   C      -24.38925         8.45303        -1.86741
   S      -23.57295         7.19056        -2.72768
   C      -21.20436         8.49787         0.05502
   C      -21.08913         9.39366         1.15564
   C      -20.21783         9.28920         2.18440
   C      -20.06537        10.21473         3.27770
   C      -20.93426        11.28963         3.51654
   C      -20.71731        12.12669         4.58101
   C      -19.63812        11.92629         5.44675
   C      -18.74141        10.86717         5.23136
   C      -18.98435        10.03790         4.15094
   C      -17.53752        10.58147         6.10406
   O      -17.88897         9.99377         7.32994
   N      -19.50712        12.85362         6.52541
   O      -20.11629        13.90268         6.44810
   O      -18.80205        12.55536         7.47610
   H       -0.83949         6.49402         5.17028
   H        2.96252         3.49621         3.87991
   H        1.10097         7.89942         6.62874
   H       -1.55193         1.65791         1.22278
   H       -3.55610         1.12569         0.04290
   H       -9.54030         2.51384        -0.77174
   H      -10.69351         6.04409         2.33364
   H      -16.58431         7.59476         1.39679
   H      -18.49761         8.00129         0.60737
   H      -20.78076         5.30281        -3.05439
   H      -24.01888         9.79276        -0.23200
   H      -25.38474         8.71187        -2.17100
   H      -21.80290        10.20709         1.14687
   H      -19.56299         8.43164         2.23338
   H      -21.78572        11.45778         2.87716
   H      -21.38239        12.95350         4.78095
   H      -18.29465         9.22674         3.97168
   H      -16.96719        11.50720         6.26467
   H      -16.89443         9.86159         5.59273
   H      -18.26606        10.69341         7.88537
*
