# ORCA input file
# SCF done       -219.780655068664          0.000700346361
! CAM-B3LYP def2-SVP def2/J RIJCOSX Grid4 TightSCF
%maxcore 5000
%tddft
    Mode sTDDFT
    Ethresh 5.0
    maxcore 5000
end

%pal
  nprocs 6
  end
* xyz 0 1
   C        0.71083         1.37447         3.86854
   C        2.07130         1.50424         3.87159
   F        2.63562         2.67100         4.20641
   C        2.89744         0.41606         3.52318
   F        4.22742         0.57229         3.53554
   C        2.35066        -0.78714         3.17557
   C        0.95185        -0.95172         3.16177
   C        0.11497         0.14706         3.51391
   C       -1.29150         0.00613         3.50460
   C       -1.84679        -1.19533         3.14701
   C       -1.00272        -2.28372         2.79592
   C        0.35895        -2.18146         2.80306
   C       -1.82297        -3.45270         2.43071
   O       -1.40002        -4.54221         2.10947
   C       -3.23719        -3.02151         2.60180
   C       -3.23598        -1.63292         3.04042
   C       -4.32880        -0.84259         3.27776
   C       -5.68190        -1.23342         3.17135
   N       -6.80735        -1.45477         3.12050
   C       -4.25056         0.50936         3.67843
   N       -4.25719         1.61043         4.00183
   C       -4.34318        -3.81790         2.52890
   C       -4.45632        -5.14669         2.03185
   C       -3.70284        -5.68355         1.03859
   C       -3.89014        -7.01495         0.57801
   C       -4.70886        -7.89708         1.19721
   C       -5.55060        -7.44834         2.37253
   C       -5.68215        -5.91417         2.50491
   N       -6.77712        -5.33880         1.75574
   C       -7.74930        -6.06116         1.42661
   C       -7.82091        -7.49111         1.79191
   N       -6.83089        -8.11429         2.25588
   F       -8.97649        -8.11397         1.64754
   F       -8.74752        -5.55130         0.72275
   C       -4.75100        -9.28514         0.77563
   C       -4.79925        -9.60862        -0.53834
   C       -4.69735       -10.94906        -1.00728
   C       -4.77538       -12.01648        -0.16867
   C       -5.18303       -11.72006         1.25820
   C       -4.55710       -10.41701         1.77658
   N       -5.06696       -10.10957         3.09443
   C       -6.29822       -10.32974         3.27568
   C       -7.13898       -10.99908         2.25807
   N       -6.63331       -11.64573         1.30509
   F       -8.45167       -10.89957         2.36735
   F       -6.83566       -10.05280         4.45509
   C       -4.54105       -13.35929        -0.61947
   C       -3.72789       -13.60245        -1.68697
   C       -3.50916       -14.89337        -2.22054
   C       -4.23915       -15.97556        -1.83380
   C       -5.28091       -15.79270        -0.75122
   C       -5.03111       -14.57083         0.15808
   N       -6.20133       -14.27573         0.95332
   C       -7.33041       -14.45811         0.42684
   C       -7.49225       -15.09836        -0.89702
   N       -6.55841       -15.75049        -1.42952
   F       -8.67230       -15.02961        -1.49042
   F       -8.42166       -14.19254         1.12457
   C       -4.11299       -17.27581        -2.38591
   C       -3.56078       -17.69467        -3.56013
   C       -3.17179       -19.13302        -3.66721
   O       -3.48025       -20.01918        -2.90577
   C       -2.28873       -19.21330        -4.84583
   C       -1.55435       -20.27172        -5.29768
   C       -0.72853       -20.09994        -6.43103
   C       -0.67819       -18.82804        -7.07216
   C        0.15957       -18.65809        -8.19266
   C        0.91022       -19.70190        -8.65602
   C        0.85778       -20.96023        -8.02270
   C        0.05517       -21.15673        -6.93399
   F        1.60611       -21.96425        -8.49725
   F        1.70732       -19.53769        -9.71912
   C       -1.45922       -17.75388        -6.58729
   C       -2.25975       -17.94581        -5.49318
   C       -3.16636       -17.03877        -4.78809
   C       -3.70087       -15.90124        -5.33474
   C       -4.70113       -15.10658        -4.73883
   N       -5.50512       -14.40445        -4.31725
   C       -3.33796       -15.40046        -6.60319
   N       -3.06563       -14.93685        -7.61713
   H        0.09397         2.21776         4.13720
   H        2.99562        -1.61048         2.91128
   H       -1.89307         0.85620         3.78170
   H        0.97237        -3.02773         2.53335
   H       -5.27141        -3.41999         2.92127
   H       -2.92148        -5.10575         0.57534
   H       -3.27702        -7.35234        -0.24374
   H       -5.08326        -7.86179         3.27872
   H       -5.88060        -5.66519         3.55598
   H       -4.90594        -8.82496        -1.27388
   H       -4.57531       -11.09377        -2.06923
   H       -4.88195       -12.54463         1.91505
   H       -3.47042       -10.54378         1.89326
   H       -3.21795       -12.78175        -2.16542
   H       -2.73207       -15.00559        -2.96205
   H       -5.30164       -16.69616        -0.12383
   H       -4.23731       -14.82426         0.87782
   H       -4.44990       -18.09295        -1.75347
   H       -1.59876       -21.22545        -4.79441
   H        0.20847       -17.70299        -8.69189
   H        0.02648       -22.12548        -6.46032
   H       -1.39288       -16.80111        -7.08764
*
