# ORCA input file
# SCF done       -188.082117897024          0.000886926911
! CAM-B3LYP def2-SVP def2/J RIJCOSX Grid4 TightSCF
%maxcore 5000
%tddft
    Mode sTDDFT
    Ethresh 5.0
    maxcore 5000
end

%pal
  nprocs 6
  end
* xyz 0 1
   C        2.84948        -0.54990        -8.39384
   O        3.23531        -0.50928        -9.52772
   N        1.58944        -1.01839        -8.04264
   C        0.79415        -1.80510        -8.85319
   N       -0.32932        -2.09158        -8.29471
   C       -0.32028        -1.47092        -7.07430
   C        0.84877        -0.80818        -6.89103
   N        3.62074        -0.09700        -7.31471
   C        4.38073         1.05019        -7.35688
   C        4.91361         1.20048        -6.11019
   N        4.54171         0.17194        -5.31367
   C        3.77940        -0.61267        -6.02996
   C        3.26897        -1.87319        -5.58337
   C        3.01933        -2.21354        -4.27760
   C        2.50097        -3.54129        -4.24344
   C        2.51559        -4.02925        -5.63509
   C        2.98465        -3.02477        -6.42299
   C        2.24748        -5.33165        -6.06817
   N        2.07704        -6.40437        -6.44531
   C        2.08135        -4.27442        -3.15882
   C        1.48370        -5.55824        -3.21537
   C        1.45209        -6.10921        -1.95116
   C        1.96642        -5.10766        -1.02488
   C        2.30448        -3.99456        -1.72931
   C        2.80201        -2.80501        -1.18567
   N        3.18591        -1.83242        -0.71098
   C        1.07566        -7.46579        -1.76310
   N        1.42762        -8.31190        -0.74530
   C        2.21210        -8.00499         0.42820
   C        3.68101        -7.77481         0.08837
   C        1.10715        -9.65567        -1.04482
   O        1.35342       -10.58372        -0.30888
   C        0.43428        -9.58323        -2.32618
   C        0.39925        -8.22920        -2.72319
   C       -0.28575        -8.16030        -3.99606
   O       -0.64596        -7.23414        -4.68890
   N       -0.52999        -9.51171        -4.33455
   C       -1.37545        -9.83267        -5.45786
   C       -2.69708       -10.45187        -5.01416
   C       -0.05761       -10.36354        -3.37090
   C       -0.01991       -11.78725        -3.43762
   C        0.24285       -12.56227        -4.51541
   C        0.76023       -12.18171        -5.79701
   C        1.61788       -11.07847        -6.04719
   C        2.15022       -10.81074        -7.36229
   N        3.00687        -9.79169        -7.55004
   C        3.33166        -9.03488        -6.54176
   C        2.81152        -9.30284        -5.22759
   N        1.99106       -10.30049        -5.01863
   C        3.23567        -8.51649        -4.13108
   N        3.60434        -7.86820        -3.26044
   C        4.28633        -7.99784        -6.71485
   N        5.10264        -7.19852        -6.79319
   C        1.84191       -11.62727        -8.46432
   C        1.02474       -12.73865        -8.21890
   C        0.51523       -13.02379        -6.90204
   N       -0.24235       -14.12508        -6.89583
   S       -0.30619       -14.73064        -8.37401
   N        0.60279       -13.63734        -9.11851
   C        2.30856       -11.32831        -9.79202
   N        2.41436       -10.14875       -10.33850
   C        2.78101       -10.34789       -11.62589
   C        2.88055       -11.68320       -11.89111
   N        2.57494       -12.32928       -10.71479
   C        2.74601       -13.69379       -10.43464
   O        3.34085       -14.09649        -9.47414
   N        2.21495       -14.53024       -11.40616
   C        1.24456       -14.26680       -12.35032
   N        0.91236       -15.32612       -13.00479
   C        1.67312       -16.34708       -12.49880
   C        2.47000       -15.88638       -11.50368
   H        1.12123        -2.12964        -9.82014
   H       -1.16102        -1.54768        -6.41534
   H        1.19247        -0.19206        -6.08696
   H        4.43824         1.64304        -8.24587
   H        5.54762         1.98008        -5.73966
   H        3.14275        -1.57081        -3.42865
   H        3.18060        -3.09401        -7.47782
   H        1.14166        -6.02563        -4.11389
   H        2.03426        -5.20679         0.04160
   H        2.11793        -8.87760         1.08161
   H        1.77950        -7.14205         0.93974
   H        4.10210        -8.67289        -0.35609
   H        4.23529        -7.53797         0.99253
   H        3.79711        -6.96087        -0.62249
   H       -0.86083       -10.50571        -6.14989
   H       -1.55361        -8.88046        -5.96773
   H       -2.52978       -11.40439        -4.51595
   H       -3.32999       -10.61846        -5.88095
   H       -3.21449        -9.78391        -4.32973
   H       -0.18411       -12.27636        -2.48535
   H        0.08885       -13.62985        -4.41950
   H        2.94192        -9.51859       -12.28444
   H        3.17214       -12.21548       -12.77324
   H        0.81004       -13.29740       -12.48659
   H        1.58457       -17.33922       -12.89201
   H        3.19159       -16.35873       -10.87097
*
