# ORCA input file
# SCF done       -188.930411299862          0.000457994272
! CAM-B3LYP def2-SVP def2/J RIJCOSX Grid4 TightSCF
%maxcore 5000
%tddft
    Mode sTDDFT
    Ethresh 5.0
    maxcore 5000
end

%pal
  nprocs 6
  end
* xyz 0 2
   C        3.34546        -3.06547         8.68823
   O        2.50748        -3.80254         9.15439
   C        4.20672        -2.09235         9.39775
   C        5.07586        -1.46859         8.49007
   C        5.97659        -0.51069         8.91449
   C        6.00077        -0.17880        10.26479
   C        5.13325        -0.80366        11.17193
   C        4.22857        -1.76722        10.74128
  Cl        5.18592        -0.37627        12.83289
  Cl        7.10524         1.00832        10.82390
   C        4.85348        -1.99708         7.11955
   O        5.46705        -1.73204         6.11636
   C        3.73192        -2.95693         7.26152
   C        3.09783        -3.58819         6.25858
   C        1.97004        -4.47188         6.48987
   C        0.66324        -4.07145         6.34429
   N        0.28994        -2.77633         5.96303
   O       -0.89468        -2.51463         5.88499
   O        1.19575        -1.98780         5.72304
   C       -0.22846        -5.15108         6.70320
   C        0.53400        -6.22327         7.01438
   C        1.93048        -5.87504         6.88214
   C        3.01918        -6.69940         7.10948
   C        4.35345        -6.27871         7.39321
   C        5.06470        -7.33427         7.89614
   C        4.24019        -8.48983         7.89281
   N        4.71768        -9.75414         8.24939
   O        4.01459       -10.74838         8.04306
   O        5.82370        -9.82027         8.75212
   C        2.97769        -8.14722         7.34320
   C        2.04620        -9.11406         6.98116
   C        1.07158        -9.10248         6.00258
   C        0.41985       -10.27777         5.64900
   S       -0.94521       -10.24746         4.55461
   C       -1.21156       -11.99007         4.62694
   C       -0.21085       -12.57328         5.45558
   C        0.68068       -11.62106         6.01065
   N        1.62021       -12.28401         6.72904
   C        1.34990       -13.62359         6.65367
   C        2.14296       -14.59101         7.29241
   N        2.77107       -15.40078         7.80498
   C        0.21826       -13.84089         5.87847
   C       -2.26058       -12.53627         3.93690
   C       -2.60966       -13.89367         3.94489
   C       -3.66096       -14.43431         3.26619
   S       -4.76854       -13.55971         2.25694
   C       -5.69883       -15.01989         1.94469
   C       -6.95178       -14.99356         1.14131
   O       -7.66883       -15.95300         1.08741
   O       -7.23564       -13.85853         0.50215
   C       -5.19862       -16.11799         2.54479
   C       -4.00795       -15.87322         3.34574
   O       -3.38075       -16.67421         4.01050
  Cl       -5.62972       -14.47695         5.88365
   C       -6.52598       -15.84533         5.35273
   C       -6.15232       -17.11237         5.77975
   C       -6.88897       -18.19220         5.32805
   C       -7.97802       -18.01463         4.46444
   C       -8.34993       -16.75402         4.03355
   C       -7.61358       -15.66801         4.48848
  Cl       -8.03181       -14.08705         3.96163
   C       -8.59311       -19.32769         4.13837
   O       -9.56145       -19.53612         3.45386
   C       -7.76462       -20.33867         4.85737
   C       -7.94572       -21.65758         4.81354
   C       -6.70241       -19.63473         5.63135
   O       -5.87825       -20.13139         6.35592
   H        6.64302        -0.02998         8.21561
   H        3.55985        -2.24718        11.43846
   H        3.40714        -3.39785         5.23613
   H       -1.29684        -5.05909         6.72560
   H        0.18186        -7.16443         7.38647
   H        4.71498        -5.27613         7.28856
   H        6.08506        -7.32860         8.23082
   H        2.19563       -10.05792         7.47903
   H        0.82322        -8.20294         5.45985
   H        2.43970       -11.90926         7.19533
   H       -0.20070       -14.80227         5.66187
   H       -2.87689       -11.86584         3.35084
   H       -2.03355       -14.59108         4.53589
   H       -6.58600       -13.15521         0.64365
   H       -5.63800       -17.09475         2.45395
   H       -5.30564       -17.25298         6.43298
   H       -9.17315       -16.62121         3.34956
   H       -8.74084       -22.08645         4.22516
   H       -7.30008       -22.32357         5.36298
*
