# ORCA input file
# SCF done       -198.676256773594          0.000765378102
! CAM-B3LYP def2-SVP def2/J RIJCOSX Grid4 TightSCF
%maxcore 5000
%tddft
    Mode sTDDFT
    Ethresh 5.0
    maxcore 5000
end

%pal
  nprocs 6
  end
* xyz 0 1
   C        1.76409         2.06080        -3.67193
   C        1.54166         3.08934        -4.54482
   C        1.24570         2.90018        -5.91226
   N        1.01278         2.79240        -7.03020
   C        1.68727         4.45132        -4.20831
   N        1.84075         5.56833        -3.99440
   C        1.84904         0.65032        -4.02665
   C        2.57187        -0.03607        -3.00576
   C        2.83277        -1.37432        -3.08972
   C        2.36673        -2.09838        -4.20952
   C        1.62943        -1.42061        -5.22436
   C        1.37824        -0.03423        -5.11525
   C        1.16346        -2.15737        -6.33240
   C        1.41433        -3.49835        -6.43640
   C        2.14030        -4.16472        -5.43745
   C        2.60676        -3.47992        -4.34837
   C        2.92282         0.90923        -1.93438
   O        3.58576         0.71552        -0.94345
   C        2.21585         2.18112        -2.29278
   C        2.01060         3.12175        -1.34875
   C        1.07387         4.22204        -1.39323
   C       -0.16653         4.08316        -2.01250
   C       -1.06270         5.13472        -2.04212
   N       -2.36403         4.86466        -2.60100
   O       -2.43714         3.97036        -3.41715
   O       -3.30334         5.50956        -2.18992
   C       -0.74833         6.39083        -1.49035
   C        0.48953         6.49914        -0.84187
   C        1.36608         5.44149        -0.77048
   C       -1.62146         7.52655        -1.64852
   C       -1.73067         8.53649        -0.75750
   C       -2.60759         9.63525        -0.97531
   N       -2.82786        10.63785        -0.06022
   C       -2.16475        10.81097         1.20872
   C       -0.76212        11.39090         1.04150
   C       -3.78889        11.56563        -0.51335
   O       -4.14770        12.53126         0.12697
   C       -4.16763        11.06559        -1.81520
   C       -3.42214         9.89181        -2.07479
   C       -3.81976         9.40694        -3.37688
   O       -3.43356         8.47192        -4.04750
   N       -4.82594        10.30066        -3.80099
   C       -5.39004        10.14942        -5.12125
   C       -4.91649        11.23980        -6.07810
   C       -5.03998        11.29850        -2.87591
   C       -5.96913        12.37032        -2.87355
   C       -7.02531        12.59156        -3.69584
   C       -7.92211        13.68464        -3.55942
   S       -9.35273        13.72826        -4.55480
   C       -9.87764        15.21982        -3.84161
   C       -8.95103        15.65084        -2.88350
   C       -7.86309        14.78512        -2.72430
   C       -9.11631        16.84048        -2.15124
   N       -9.24317        17.81189        -1.55554
   C      -11.08981        15.85114        -4.19373
   C      -11.98725        15.31876        -5.06802
   C      -13.21215        15.94665        -5.37752
   C      -14.17169        15.40472        -6.18743
   C      -15.45769        15.98610        -6.52555
   C      -15.90602        17.24107        -6.20190
   C      -17.17128        17.74717        -6.56711
   N      -18.18214        18.22223        -6.83304
   C      -15.18187        18.21406        -5.48188
   N      -14.66118        19.06175        -4.90789
   C      -16.20057        15.00123        -7.30532
   C      -15.37878        13.85338        -7.49099
   C      -14.08285        14.06384        -6.82563
   O      -13.14812        13.28922        -6.80595
   C      -15.80913        12.75986        -8.18552
   C      -17.11010        12.76149        -8.73566
   C      -17.94040        13.90488        -8.55354
   C      -17.46549        15.02370        -7.83111
   C      -19.23805        13.89555        -9.10443
   C      -19.69512        12.81009        -9.80102
   C      -18.87675        11.68460        -9.97899
   C      -17.61151        11.66098        -9.45797
   H        3.38647        -1.87533        -2.30961
   H        0.80587         0.45334        -5.88891
   H        0.60748        -1.63922        -7.09968
   H        1.05464        -4.05369        -7.28950
   H        2.32751        -5.22352        -5.53512
   H        3.16598        -3.98784        -3.57634
   H        2.57648         3.00200        -0.43041
   H       -0.46699         3.13827        -2.44248
   H        0.77080         7.44967        -0.41657
   H        2.31419         5.56035        -0.26820
   H       -2.23000         7.55915        -2.54334
   H       -1.19003         8.50382         0.17794
   H       -2.13236         9.85548         1.74016
   H       -2.78359        11.50934         1.77921
   H       -0.14005        10.74063         0.43026
   H       -0.29450        11.51177         2.01472
   H       -0.81911        12.36407         0.56043
   H       -6.48098        10.11449        -5.06194
   H       -5.03769         9.17554        -5.47536
   H       -5.19666        12.22853        -5.72194
   H       -5.35694        11.08284        -7.05879
   H       -3.83419        11.20171        -6.17450
   H       -5.80289        13.05014        -2.04807
   H       -7.26414        11.90715        -4.49473
   H       -7.06501        14.96673        -2.02743
   H      -11.29681        16.79797        -3.70839
   H      -11.77363        14.36733        -5.53585
   H      -13.39300        16.90888        -4.91562
   H      -15.16440        11.90256        -8.31086
   H      -18.12119        15.87096        -7.70939
   H      -19.86449        14.76437        -8.96498
   H      -20.69071        12.81261       -10.21885
   H      -19.25391        10.83651       -10.53071
   H      -16.97656        10.79729        -9.59152
*
