# ORCA input file
# SCF done       -187.072367666685          0.000326220239
! CAM-B3LYP def2-SVP def2/J RIJCOSX Grid4 TightSCF
%maxcore 5000
%tddft
    Mode sTDDFT
    Ethresh 5.0
    maxcore 5000
end

%pal
  nprocs 6
  end
* xyz 0 1
   C        2.15791         7.67635         8.49884
   C        2.96308         7.93432         7.41949
   C        4.27306         7.43151         7.28173
   N        5.33878         7.03774         7.11949
   C        2.60183         8.80137         6.36976
   N        2.35240         9.52404         5.51327
   C        2.57465         6.98858         9.71583
   C        1.67663         7.34053        10.76626
   C        1.83877         6.86601        12.03604
   C        2.91649         5.99499        12.31403
   C        3.80780         5.62744        11.26441
   C        3.62053         6.14025         9.96017
   C        4.87356         4.75142        11.55336
   C        5.05404         4.26236        12.81857
   C        4.17692         4.62518        13.85154
   C        3.13149         5.47338        13.60493
   C        0.62498         8.22284        10.23262
   O       -0.27303         8.76907        10.83011
   C        0.85664         8.25630         8.75706
   C       -0.13982         8.69602         7.94311
   C       -0.32284         8.45140         6.56007
   S       -1.38501         9.46125         5.61851
   C       -1.13542         8.51527         4.18648
   C       -0.27850         7.43807         4.46394
   C        0.17351         7.41881         5.78760
   C        0.11843         6.44461         3.55360
   N        0.46978         5.59892         2.86159
   C       -1.77189         8.89673         2.98770
   C       -1.66166         8.23183         1.80080
   C       -2.30974         8.62596         0.61912
   C       -3.15524         9.72738         0.36692
   C       -3.62034         9.78106        -0.98092
   N       -4.43663        10.76688        -1.39133
   C       -4.76683        11.65764        -0.49558
   C       -4.30810        11.61691         0.84817
   C       -4.71718        12.66526         1.82463
   N       -3.51402        10.65837         1.26673
   C       -3.13992         8.72062        -1.78018
   S       -2.11934         7.69037        -0.82703
   C       -3.37304         8.43020        -3.13172
   C       -4.15012         9.19162        -3.96182
   C       -4.38287         8.89679        -5.31889
   C       -5.14358         9.65317        -6.19580
   C       -5.14613         9.03926        -7.47211
   C       -4.31911         7.81979        -7.33917
   C       -3.87180         7.74842        -6.06121
   C       -4.01495         6.88729        -8.33796
   N       -3.73459         6.09953        -9.12561
   C       -5.77359         9.47163        -8.62176
   C       -5.76736         8.83989        -9.89971
   C       -6.45660         9.62700       -10.79926
   C       -6.97931        10.77672       -10.07634
   C       -6.58014        10.69007        -8.77831
   C       -6.91612        11.60401        -7.77387
   N       -7.21136        12.36426        -6.96438
   C       -6.63731         9.30639       -12.17119
   C       -6.79696        10.17878       -13.20558
   C       -7.09052         9.83142       -14.58470
   C       -7.56660         8.62653       -15.03166
   C       -7.85753         8.34559       -16.38301
   N       -8.10709         8.05719       -17.46577
   C       -7.86891         7.52148       -14.20783
   N       -8.16401         6.59380       -13.59901
   C       -6.87697        11.02005       -15.40005
   C       -6.52528        12.10156       -14.54266
   C       -6.47250        11.63140       -13.14812
   O       -6.15103        12.28018       -12.17646
   C       -6.26939        13.35236       -15.02613
   C       -6.35545        13.58364       -16.41712
   C       -6.70008        12.50544       -17.28280
   C       -6.95885        11.22068       -16.75280
   C       -6.77616        12.74628       -18.66976
   C       -6.52544        13.99143       -19.17876
   C       -6.18701        15.05234       -18.32544
   C       -6.10438        14.85299       -16.97400
   H        1.15241         7.14987        12.81988
   H        4.30331         5.83827         9.18120
   H        5.54785         4.47755        10.75530
   H        5.87436         3.59314        13.03030
   H        4.33343         4.22904        14.84365
   H        2.45306         5.75597        14.39652
   H       -0.93511         9.24151         8.44191
   H        0.81032         6.64148         6.17319
   H       -2.39089         9.78229         3.02228
   H       -1.05047         7.34285         1.73285
   H       -5.42330        12.44996        -0.82857
   H       -4.40156        13.64639         1.47312
   H       -4.26599        12.46638         2.79230
   H       -5.80128        12.67999         1.92628
   H       -2.88817         7.54008        -3.50945
   H       -4.61672        10.07962        -3.55889
   H       -5.65429        10.56354        -5.95083
   H       -3.24516         6.97366        -5.66097
   H       -5.26394         7.92122       -10.13078
   H       -7.61015        11.53697       -10.49277
   H       -6.59406         8.24675       -12.39619
   H       -6.00458        14.15570       -14.35465
   H       -7.20955        10.42336       -17.43437
   H       -7.03804        11.92656       -19.32256
   H       -6.58647        14.16583       -20.24252
   H       -5.99166        16.02816       -18.74428
   H       -5.84382        15.66579       -16.31195
*
