# ORCA input file
# SCF done       -249.704942138022          0.000923543287
! CAM-B3LYP def2-SVP def2/J RIJCOSX Grid4 TightSCF
%maxcore 5000
%tddft
    Mode sTDDFT
    Ethresh 5.0
    maxcore 5000
end

%pal
  nprocs 6
  end
* xyz 0 1
   C      -18.04196         0.31697        -0.63340
   C      -18.42375         1.31456         0.21868
   F      -19.63846         1.86796         0.10639
   C      -17.54855         1.77360         1.22397
   F      -17.95054         2.75308         2.04462
   C      -16.30275         1.22871         1.36244
   C      -15.87929         0.19922         0.49962
   C      -16.76397        -0.26674        -0.51655
   C      -16.36365        -1.30261        -1.39000
   C      -15.11864        -1.85866        -1.24826
   C      -14.24097        -1.38624        -0.23016
   C      -14.59761        -0.38239         0.62220
   C      -12.97784        -2.14663        -0.28248
   O      -11.93376        -1.88828         0.26751
   C      -13.22445        -3.23002        -1.27722
   C      -14.46293        -2.94115        -1.97375
   C      -14.92940        -3.55878        -3.10571
   C      -14.25023        -4.57071        -3.81528
   N      -13.74583        -5.38990        -4.44510
   C      -16.14891        -3.22977        -3.73551
   N      -17.12588        -3.00357        -4.29361
   C      -12.42983        -4.31224        -1.45571
   C      -11.32941        -4.71831        -0.64849
   C      -11.17499        -4.76342         0.73205
   N      -12.09099        -4.38440         1.73050
   O      -13.23125        -4.08944         1.40308
   O      -11.70469        -4.41979         2.88369
   C       -9.95189        -5.45117         1.04369
   C       -9.38699        -5.88764        -0.11518
   C      -10.19867        -5.44793        -1.20937
   C       -9.94485        -5.55407        -2.56965
   C      -10.29917        -4.58194        -3.53848
   C       -9.70998        -4.90340        -4.73532
   C       -9.01144        -6.13200        -4.59259
   N       -8.38748        -6.77763        -5.66468
   O       -7.72313        -7.78650        -5.45025
   O       -8.54658        -6.29974        -6.77736
   C       -9.17757        -6.60054        -3.27038
   C       -8.99853        -7.93398        -2.90620
   C       -9.50416        -8.59812        -1.80827
   C       -9.52236        -9.99914        -1.72752
   C       -9.38530       -10.74650        -0.55920
   C       -9.17668       -12.09323        -0.88802
   O       -8.98592       -12.96382         0.10072
   C       -8.54000       -14.28682        -0.11001
   C       -9.27818       -12.24339        -2.30940
   C       -9.49508       -10.93100        -2.85379
   C       -9.73594       -10.57548        -4.17434
   C      -10.57334        -9.53012        -4.63380
   C      -10.50771        -9.50059        -6.01148
   O      -11.11686        -8.73794        -6.88396
   C      -11.98891        -7.72461        -6.42049
   C       -9.55352       -10.53035        -6.45558
   C       -9.12423       -11.19051        -5.37345
   C       -9.43667       -13.46505        -3.00352
   C      -10.11320       -13.64175        -4.17342
   C      -10.23125       -14.89366        -4.81085
   S       -9.56021       -16.35665        -4.16812
   C      -10.22699       -17.32218        -5.45580
   C      -10.90064       -16.50960        -6.36218
   C      -10.91855       -15.15046        -6.00436
   C      -11.51977       -14.09440        -6.71370
   N      -11.97683       -13.18058        -7.23332
   C      -11.58021       -17.07029        -7.57202
   F      -10.70964       -17.65363        -8.41714
   F      -12.47227       -18.02713        -7.24386
   F      -12.24518       -16.15654        -8.27742
   C      -10.06271       -18.72945        -5.53913
   C       -9.65002       -19.56567        -4.54872
   C       -9.49109       -19.21634        -3.18558
   C       -8.88783       -19.93469        -2.20046
   C       -9.16669       -19.60671        -0.77616
   O       -9.64427       -18.57655        -0.35616
   C       -8.76587       -20.80867        -0.02134
   C       -8.94406       -21.09095         1.30263
   C       -8.50983       -22.33819         1.80398
   C       -7.89170       -23.27111         0.92072
   C       -7.46597       -24.51534         1.42732
   C       -7.64615       -24.81972         2.74771
   C       -8.25907       -23.89682         3.61995
   C       -8.68129       -22.68118         3.15925
   F       -8.42524       -24.22250         4.90726
   F       -7.24202       -26.00150         3.22683
   C       -7.71126       -22.94828        -0.44402
   C       -8.14152       -21.73435        -0.90849
   C       -8.07425       -21.13084        -2.23708
   C       -7.24434       -21.51048        -3.25740
   C       -7.00879       -20.70748        -4.39451
   N       -6.74901       -20.04615        -5.29527
   C       -6.44798       -22.67442        -3.22463
   N       -5.79802       -23.61961        -3.24343
   H      -18.72413        -0.02283        -1.39703
   H      -15.64529         1.59016         2.13752
   H      -17.05693        -1.63829        -2.14460
   H      -13.91549        -0.04528         1.38747
   H      -12.63638        -4.97363        -2.28810
   H       -9.58895        -5.58395         2.04498
   H       -8.43794        -6.37789        -0.22264
   H      -10.82711        -3.67294        -3.32435
   H       -9.74463        -4.33719        -5.64734
   H       -8.46950        -8.53133        -3.63806
   H       -9.88420        -8.05289        -0.95613
   H       -9.33849       -10.35715         0.43963
   H       -8.25766       -14.65416         0.87623
   H       -7.66852       -14.31901        -0.76807
   H       -9.33924       -14.92211        -0.50242
   H      -11.20708        -8.93278        -4.00839
   H      -11.46640        -7.01763        -5.77020
   H      -12.83302        -8.15046        -5.87397
   H      -12.34814        -7.20544        -7.30583
   H       -9.27649       -10.66785        -7.48150
   H       -8.37393       -11.95535        -5.33066
   H       -9.03914       -14.36015        -2.54593
   H      -10.63366       -12.82126        -4.64511
   H      -10.27139       -19.16495        -6.50649
   H       -9.49880       -20.60315        -4.81347
   H      -10.00282       -18.32736        -2.83061
   H       -9.41558       -20.37469         1.95817
   H       -6.99353       -25.23259         0.77447
   H       -9.14884       -21.98640         3.83929
   H       -7.24780       -23.67484        -1.09244
*
