# ORCA input file
# SCF done       -231.401820039566          0.000756205448
! CAM-B3LYP def2-SVP def2/J RIJCOSX Grid4 TightSCF
%maxcore 5000
%tddft
    Mode sTDDFT
    Ethresh 5.0
    maxcore 5000
end

%pal
  nprocs 6
  end
* xyz 0 1
   C      -10.26083        -8.04286         7.85937
   C      -11.30395        -8.92571         7.88890
   F      -12.10187        -8.99015         8.96040
   C      -11.55234        -9.77880         6.79415
   F      -12.57957       -10.63567         6.84948
   C      -10.75438        -9.73663         5.68541
   C       -9.67041        -8.83924         5.62544
   C       -9.41860        -7.97578         6.73144
   C       -8.33597        -7.06797         6.69377
   C       -7.53008        -7.02947         5.58693
   C       -7.78229        -7.90035         4.48858
   C       -8.82450        -8.78360         4.49592
   C       -6.75965        -7.69406         3.44721
   O       -6.66701        -8.29764         2.39615
   C       -5.83156        -6.67978         4.00443
   C       -6.36707        -6.21160         5.26954
   C       -5.91779        -5.12539         5.96787
   C       -4.88852        -4.27712         5.50351
   N       -4.09940        -3.53147         5.13284
   C       -6.47347        -4.68814         7.18874
   N       -6.89315        -4.30169         8.18411
   C       -4.58535        -6.44573         3.51240
   C       -4.15332        -6.87128         2.22490
   C       -3.02679        -7.62451         1.92766
   N       -2.09501        -8.09185         2.86879
   O       -2.32341        -7.87069         4.04929
   O       -1.11736        -8.68569         2.45424
   C       -3.02752        -7.95266         0.53282
   C       -4.15931        -7.43815        -0.02485
   C       -4.89051        -6.72231         0.97884
   C       -5.98838        -5.89455         0.79643
   C       -6.30131        -4.72193         1.52306
   C       -7.36180        -4.10163         0.91291
   C       -7.80138        -4.88121        -0.19298
   N       -8.89343        -4.47889        -0.97114
   O       -9.08422        -5.01529        -2.05529
   O       -9.59958        -3.58906        -0.52662
   C       -7.00123        -6.04064        -0.27457
   C       -7.17302        -7.28300        -0.87684
   C       -8.03938        -7.64555        -1.89446
   C       -8.29826        -8.95709        -2.27159
   S       -8.96492        -9.25978        -3.84689
   C       -8.91450       -10.98458        -3.65324
   C       -8.39896       -11.32843        -2.37171
   C       -8.09246       -10.18751        -1.57718
   C       -7.69200       -10.35016        -0.24752
   C       -7.48420       -11.61527         0.26634
   C       -7.04036       -11.79407         1.68062
   C       -7.68484       -12.73285        -0.55920
   C       -8.14229       -12.60332        -1.84732
   C       -9.36830       -11.74803        -4.73549
   C       -9.68925       -13.08157        -4.77047
   C      -10.09367       -13.74717        -5.94299
   C      -10.11841       -13.27418        -7.24883
   C      -10.58005       -14.29758        -8.10831
   C      -10.85572       -15.46802        -7.24922
   C      -10.55137       -15.13050        -5.97071
   C      -11.30920       -16.72088        -7.67762
   N      -11.68288       -17.75317        -8.01682
   C      -10.70395       -14.25527        -9.48221
   C      -11.17924       -15.29506       -10.32604
   C      -11.00201       -14.92888       -11.64438
   C      -10.44665       -13.58300       -11.65845
   C      -10.26409       -13.17110       -10.37630
   C       -9.73156       -11.93922        -9.98104
   N       -9.30737       -10.91956        -9.66457
   C      -11.32327       -15.66117       -12.81212
   C      -11.56780       -16.99353       -12.95288
   C      -12.28243       -17.45425       -14.18281
   O      -12.46031       -16.81229       -15.19051
   C      -12.75881       -18.81348       -13.86833
   C      -13.58122       -19.62528       -14.59590
   C      -13.94419       -20.88389       -14.06723
   C      -13.45555       -21.27204       -12.78530
   C      -13.83473       -22.52277       -12.25776
   C      -14.65559       -23.35077       -12.97080
   C      -15.13531       -22.96734       -14.23991
   C      -14.78801       -21.75995       -14.77779
   F      -15.93869       -23.79886       -14.91551
   F      -15.01425       -24.53882       -12.46893
   C      -12.59883       -20.41366       -12.05867
   C      -12.24537       -19.20671       -12.59965
   C      -11.37169       -18.14714       -12.09790
   C      -10.39134       -18.33271       -11.15955
   C       -9.42218       -17.37114       -10.81491
   N       -8.59951       -16.63154       -10.50770
   C      -10.17519       -19.55444       -10.48444
   N       -9.94256       -20.52816        -9.92503
   H      -10.08524        -7.39605         8.70468
   H      -10.95939       -10.39606         4.85663
   H       -8.16353        -6.43057         7.54611
   H       -9.00235        -9.43410         3.65265
   H       -3.83671        -5.98483         4.14698
   H       -2.25199        -8.51690         0.05128
   H       -4.41132        -7.45149        -1.06809
   H       -5.72846        -4.33153         2.34270
   H       -7.81033        -3.16534         1.18942
   H       -6.52393        -8.05447        -0.48873
   H       -8.51011        -6.86314        -2.47688
   H       -7.55896        -9.49880         0.39927
   H       -7.79789       -12.33252         2.24978
   H       -6.85795       -10.83141         2.15102
   H       -6.12475       -12.38215         1.71786
   H       -7.48703       -13.71717        -0.16142
   H       -8.28133       -13.48260        -2.45260
   H       -9.52470       -11.18280        -5.64588
   H       -9.68172       -13.66834        -3.86403
   H       -9.83078       -12.29610        -7.57851
   H      -10.62898       -15.76577        -5.10730
   H      -11.64840       -16.19267        -9.97656
   H      -10.20258       -13.03414       -12.54905
   H      -11.45798       -15.07904       -13.71992
   H      -13.95276       -19.31008       -15.55903
   H      -13.47357       -22.83295       -11.28973
   H      -15.16405       -21.48081       -15.74959
   H      -12.25440       -20.72445       -11.08537
*
