# ORCA input file
# SCF done       -209.852653486076          0.000565765829
! CAM-B3LYP def2-SVP def2/J RIJCOSX Grid4 TightSCF
%maxcore 5000
%tddft
    Mode sTDDFT
    Ethresh 5.0
    maxcore 5000
end

%pal
  nprocs 6
  end
* xyz 0 1
   C       -7.83083        -0.90721        -8.06906
   C       -8.68442        -1.16206        -9.10516
   F       -8.83612        -0.26583       -10.08877
   C       -9.41425        -2.36727        -9.15402
   F      -10.24369        -2.58919       -10.18228
   C       -9.27986        -3.30150        -8.16569
   C       -8.40747        -3.06850        -7.08465
   C       -7.66900        -1.85049        -7.03389
   C       -6.78474        -1.59509        -5.96148
   C       -6.63864        -2.53151        -4.97072
   C       -7.37942        -3.74269        -5.03160
   C       -8.24574        -4.01640        -6.05049
   C       -7.04773        -4.58571        -3.86671
   O       -7.56600        -5.64200        -3.58471
   C       -6.01255        -3.83466        -3.10797
   C       -5.80455        -2.55574        -3.77193
   C       -4.96273        -1.54392        -3.38794
   C       -4.12487        -1.52725        -2.25190
   N       -3.40621        -1.41795        -1.36220
   C       -4.80958        -0.33183        -4.09624
   N       -4.63262         0.67555        -4.61709
   C       -5.36876        -4.22167        -1.96603
   C       -5.32903        -5.46385        -1.28622
   C       -5.80458        -6.72039        -1.61080
   C       -5.34141        -7.65751        -0.63995
   C       -4.57810        -6.88631         0.35294
   C       -4.57236        -5.58795        -0.04456
   C       -3.95355        -7.38353         1.50240
   N       -3.43133        -7.76903         2.45028
   C       -5.47636        -9.02778        -0.67539
   C       -4.89803        -9.97403         0.20929
   C       -5.16968       -11.24951        -0.23675
   C       -5.95346       -11.13175        -1.46261
   C       -6.15337        -9.81577        -1.72651
   C       -6.88590        -9.35470        -2.82783
   N       -7.51416        -9.06527        -3.74424
   C       -4.67100       -12.45457         0.31811
   S       -3.17386       -12.36359         1.21249
   C       -3.04928       -14.05054         1.31166
   C       -4.11873       -14.69887         0.72489
   C       -5.08921       -13.78824         0.18988
   C       -6.30832       -14.29334        -0.34031
   C       -6.44340       -15.68410        -0.45928
   C       -5.42927       -16.56178        -0.00262
   C       -4.30691       -16.09409         0.60512
   O       -7.54387       -16.28106        -0.92317
   C       -7.44751       -13.43793        -0.59100
   C       -8.39246       -13.51961        -1.58311
   C       -9.41416       -12.54720        -1.34124
   C       -9.03245       -11.86032        -0.09583
   C       -7.85335       -12.38274         0.33040
   C       -9.76386       -10.87624         0.57786
   N      -10.35538       -10.07985         1.15732
   C      -10.57258       -12.35768        -2.04940
   C      -11.67253       -11.52764        -1.66571
   C      -12.75267       -11.82051        -2.46102
   C      -12.32341       -12.78168        -3.46614
   C      -11.03075       -13.12061        -3.22130
   C      -10.27633       -14.04603        -3.95032
   N       -9.66176       -14.80941        -4.54960
   C      -14.08298       -11.32999        -2.35050
   C      -14.72749       -10.88957        -1.23997
   C      -16.00544       -10.13099        -1.40433
   O      -16.65577       -10.03726        -2.41770
   C      -16.25863        -9.50405        -0.09445
   C      -17.24216        -8.62575         0.26129
   C      -17.27812        -8.13562         1.58548
   C      -16.27662        -8.54980         2.51194
   C      -16.31258        -8.05006         3.82953
   C      -17.30090        -7.18719         4.21166
   C      -18.29327        -6.78135         3.29569
   C      -18.28241        -7.24337         2.00952
   F      -19.24994        -5.93577         3.69874
   F      -17.33810        -6.71783         5.46453
   C      -15.27131        -9.46021         2.11525
   C      -15.27369        -9.94601         0.83447
   C      -14.41319       -10.92775         0.17770
   C      -13.66178       -11.85642         0.84576
   C      -12.99805       -12.95383         0.26324
   N      -12.45380       -13.89188        -0.11524
   C      -13.52193       -11.89045         2.25151
   N      -13.37500       -11.98260         3.38539
   H       -7.27959         0.01994        -8.04726
   H       -9.84448        -4.21918        -8.21726
   H       -6.24365        -0.66321        -5.95570
   H       -8.79283        -4.94669        -6.06680
   H       -4.73736        -3.47400        -1.50050
   H       -6.40482        -6.97365        -2.46164
   H       -4.09151        -4.76787         0.45706
   H       -4.33674        -9.72830         1.08931
   H       -6.24246       -11.94903        -2.09450
   H       -2.19995       -14.50421         1.78370
   H       -5.61442       -17.61729        -0.11959
   H       -3.56009       -16.76547         0.99767
   H       -8.24297       -15.64192        -1.13768
   H       -8.35820       -14.13208        -2.46494
   H       -7.33345       -12.12531         1.23424
   H      -11.64302       -10.80202        -0.87741
   H      -12.95411       -13.17561        -4.24136
   H      -14.65963       -11.27706        -3.26984
   H      -17.98406        -8.31198        -0.45714
   H      -15.56307        -8.35395         4.54343
   H      -19.04846        -6.92266         1.32103
   H      -14.51760        -9.74465         2.83165
*
