# ORCA input file
# SCF done       -168.523552017116          0.000741627330
! CAM-B3LYP def2-SVP def2/J RIJCOSX Grid4 TightSCF
%maxcore 5000
%tddft
    Mode sTDDFT
    Ethresh 5.0
    maxcore 5000
end

%pal
  nprocs 6
  end
* xyz 0 1
   C        0.07635         0.12182         1.33966
   C       -0.03145         1.41783         1.75799
   F        0.99977         2.26021         1.61255
   C       -1.22400         1.88533         2.34765
   F       -1.29930         3.16058         2.74967
   C       -2.29264         1.04905         2.50915
   C       -2.21250        -0.29312         2.08868
   C       -1.00677        -0.76812         1.49412
   C       -0.90020        -2.11166         1.07240
   C       -1.96655        -2.95857         1.24013
   C       -3.16959        -2.47164         1.82313
   C       -3.30096        -1.17877         2.24278
   C       -4.17045        -3.55327         1.87714
   O       -5.26317        -3.50186         2.38816
   C       -3.52290        -4.72393         1.20793
   C       -2.13340        -4.36952         0.91946
   C       -1.15317        -5.20800         0.46999
   C       -1.31435        -6.58725         0.21813
   N       -1.36770        -7.71244        -0.00469
   C        0.17242        -4.80201         0.20244
   N        1.26346        -4.52969        -0.02584
   C       -4.15144        -5.86414         0.88006
   C       -5.61746        -6.10355         1.07751
   C       -5.90176        -7.55627         1.27669
   N       -5.80484        -8.15977         2.44017
   S       -6.19110        -9.72555         2.26556
   N       -6.49982        -9.66619         0.67205
   C       -6.30989        -8.43920         0.24297
   C       -6.45095        -8.02212        -1.18994
   C       -6.69770        -6.55070        -1.22247
   C       -6.29295        -5.66345        -0.19141
   N       -6.56264        -4.40866        -0.47081
   S       -7.28507        -4.32912        -1.91818
   N       -7.26744        -5.92429        -2.22698
   C       -5.14811        -8.34945        -1.86354
   C       -4.14892        -7.49180        -2.19087
   C       -3.03784        -8.24810        -2.71122
   C       -3.47443        -9.65264        -2.70567
   C       -4.73029        -9.69867        -2.18012
   C       -2.74529       -10.75465        -3.16191
   N       -2.17685       -11.67591        -3.54711
   C       -1.80026        -7.76840        -3.03233
   C       -0.64927        -8.51776        -3.43769
   C        0.43082        -7.68116        -3.51888
   C       -0.02070        -6.33088        -3.20951
   C       -1.34891        -6.36635        -2.92464
   C       -2.10808        -5.26192        -2.53633
   N       -2.68842        -4.33593        -2.17475
   C        1.78757        -8.05525        -3.83167
   C        2.06480        -9.17416        -4.60099
   C        3.36757        -9.54260        -4.91473
   C        4.46566        -8.82836        -4.46592
   C        4.22541        -7.68939        -3.64456
   N        5.26100        -7.00168        -3.12320
   C        5.00126        -5.99604        -2.33205
   C        3.68200        -5.61260        -2.02789
   N        2.65956        -6.25578        -2.52084
   C        2.89000        -7.30464        -3.33266
   C        5.81553        -9.24677        -4.80387
   C        6.92233        -8.36406        -4.94995
   C        8.07184        -9.01046        -5.27636
   S        9.67363        -8.37567        -5.56978
   C        9.42846        -6.62264        -5.16860
   S        7.83441       -10.73079        -5.40398
   C        6.17117       -10.55073        -5.03293
   H        0.99651        -0.21908         0.89148
   H       -3.19838         1.42161         2.96137
   H        0.02250        -2.43862         0.62164
   H       -4.22545        -0.83862         2.68395
   H       -3.61998        -6.65493         0.36692
   H       -5.98134        -5.50689         1.91835
   H       -7.26206        -8.57382        -1.67463
   H       -4.15680        -6.42377        -2.09610
   H       -5.32840       -10.57496        -2.01179
   H       -0.64928        -9.58016        -3.57909
   H        0.60943        -5.46295        -3.21336
   H        1.24692        -9.76033        -4.99136
   H        3.52518       -10.40355        -5.54624
   H        5.85310        -5.47039        -1.92112
   H        3.45773        -4.78259        -1.37327
   H        6.83168        -7.30443        -4.81828
   H       10.40397        -6.15594        -5.26034
   H        9.06228        -6.53237        -4.15082
   H        8.73509        -6.17806        -5.87599
   H        5.55886       -11.42714        -4.96038
*
