# ORCA input file
# SCF done       -152.531562720784          0.000555403731
! CAM-B3LYP def2-SVP def2/J RIJCOSX Grid4 TightSCF
%maxcore 5000
%tddft
    Mode sTDDFT
    Ethresh 5.0
    maxcore 5000
end

%pal
  nprocs 6
  end
* xyz 0 1
   C        2.44780         1.31615         0.78486
   N        1.61824         0.29657         0.90843
   N        2.01153        -0.77229         1.46888
   C        3.29928        -0.85758         1.85006
   N        3.85302         0.31623         2.21357
   N        3.44710         1.37516         1.64744
   C        3.94596        -2.11951         2.08572
   C        4.71320        -2.68365         1.07422
   N        4.85800        -2.01601        -0.12633
   O        5.53627        -2.47653        -1.02183
   O        4.24305        -0.93742        -0.20895
   C        5.21588        -3.95298         1.50762
   C        4.71599        -4.18305         2.75084
   C        3.90308        -3.06887         3.16397
   C        3.25274        -2.87401         4.37954
   C        2.93684        -1.61292         4.94689
   C        2.55249        -1.78671         6.25154
   C        2.55788        -3.17507         6.55296
   N        2.11477        -3.68291         7.77270
   O        2.00394        -4.90569         7.91888
   O        1.84739        -2.88892         8.65734
   C        2.94425        -3.88885         5.39196
   C        2.86038        -5.27542         5.30429
   C        2.70864        -6.10379         4.21424
   C        2.42389        -7.45559         4.40098
   S        2.43410        -8.57072         3.05166
   C        2.05380        -9.97188         4.03320
   C        1.87119        -9.56320         5.37317
   C        2.07955        -8.16949         5.56749
   N        1.83130        -7.87781         6.86789
   C        1.47528        -9.03881         7.50667
   C        1.14934        -9.07933         8.87219
   N        0.87906        -9.14782         9.98389
   C        1.49554       -10.10114         6.61945
   C        1.99900       -11.22152         3.42412
   C        1.78877       -12.41613         4.07564
   C        1.77252       -13.66992         3.45410
   C        1.61582       -14.89343         4.10697
   C        1.69179       -15.94046         3.16974
   C        1.89073       -15.29873         1.85412
   C        1.93742       -13.95405         2.03596
   C        2.00659       -15.93662         0.61335
   N        2.10362       -16.41947        -0.42443
   C        1.62512       -17.30581         3.40929
   C        1.75407       -18.35663         2.47028
   C        1.65676       -19.57481         3.12709
   C        1.44935       -19.29851         4.53753
   C        1.42794       -17.94947         4.71772
   C        1.24413       -17.30784         5.94711
   N        1.09017       -16.80626         6.96941
   C        1.76387       -20.84291         2.51378
   C        1.69748       -22.03874         3.15940
   C        1.80773       -23.26834         2.46708
   N        2.25638       -23.35338         1.18305
   N        1.91369       -24.39772         0.54000
   C        1.39133       -25.44028         1.13569
   N        1.49590       -25.52653         2.47250
   N        1.61134       -24.42958         3.09930
   H        2.21524         2.14811         0.14774
   H        5.87224        -4.57444         0.93058
   H        4.95033        -5.01920         3.38031
   H        3.07124        -0.67065         4.45349
   H        2.27897        -1.02299         6.95505
   H        2.80692        -5.75617         6.26693
   H        2.76104        -5.73064         3.20266
   H        1.82614        -6.97076         7.32149
   H        1.25181       -11.11358         6.86803
   H        2.15901       -11.23122         2.35470
   H        1.64567       -12.41129         5.14591
   H        1.47463       -15.01722         5.16272
   H        2.07021       -13.22232         1.26152
   H        1.91212       -18.22938         1.41717
   H        1.33355       -20.03676         5.30836
   H        1.91965       -20.85033         1.44207
   H        1.53730       -22.11069         4.22397
   H        1.02864       -26.27376         0.56324
*
