# ORCA input file
# SCF done       -205.242345145825          0.000650123581
! CAM-B3LYP def2-SVP def2/J RIJCOSX Grid4 TightSCF
%maxcore 5000
%tddft
    Mode sTDDFT
    Ethresh 5.0
    maxcore 5000
end

%pal
  nprocs 6
  end
* xyz 0 1
   C       -7.79253        -5.01390         0.95389
   C       -8.83226        -5.10281         1.86600
   C       -8.71857        -6.01872         2.91226
   C       -9.77444        -6.13574         3.85179
   N      -10.63317        -6.22506         4.60284
   C       -7.57584        -6.83175         3.05070
   C       -7.49234        -7.74804         4.12811
   N       -7.41147        -8.49206         4.99417
   C       -6.53116        -6.73878         2.12990
   C       -6.65751        -5.83917         1.09220
   C       -5.69589        -5.55806        -0.00249
   O       -4.54411        -5.88951        -0.06833
   C       -6.45650        -4.66847        -0.93902
   C       -7.62519        -4.16890        -0.22518
   C       -8.37317        -3.07507        -0.55497
   C       -9.48836        -2.62941         0.19240
   N      -10.39800        -2.23121         0.76468
   C       -8.08953        -2.20923        -1.63475
   N       -7.88999        -1.44977        -2.47202
   C       -6.16359        -4.44174        -2.23696
   C       -5.12851        -5.06879        -3.00360
   N       -4.76814        -6.32489        -2.86646
   C       -3.90857        -6.57644        -3.88188
   C       -3.74681        -5.39273        -4.74438
   C       -2.81583        -5.67311        -5.85428
   O       -2.46257        -4.93889        -6.74423
   C       -2.43005        -7.07707        -5.59043
   C       -3.13068        -7.58637        -4.38026
   N       -2.77256        -8.87069        -4.12910
   C       -1.91479        -9.17784        -5.06460
   C       -1.64630        -8.09709        -6.00782
   C       -4.50270        -4.40566        -4.17707
   C       -4.73878        -3.05607        -4.57327
   C       -4.99093        -2.06581        -3.68895
   C       -5.39289        -0.73927        -4.01331
   S       -5.06692         0.55724        -2.92292
   C       -5.89137         1.71413        -3.92585
   C       -6.42238         1.08028        -5.05394
   C       -6.13598        -0.29121        -5.10331
   S       -6.73926        -1.44639        -6.28398
   C       -8.08835        -0.67891        -7.14608
   O       -8.87227        -1.39480        -7.69779
   C       -8.16037         0.81999        -7.33012
   O       -8.81673         1.28568        -8.21682
   S       -7.29516         1.96637        -6.29174
   C       -5.89274         3.05879        -3.49403
   C       -6.46653         4.13450        -4.09847
   C       -6.34103         5.43184        -3.54614
   N       -5.62557         5.67184        -2.45116
   C       -5.70209         6.99423        -2.24024
   C       -6.54526         7.65564        -3.25264
   C       -6.59145         9.10998        -3.01067
   O       -7.20505         9.95860        -3.62596
   C       -5.72017         9.27273        -1.84057
   C       -5.20826         7.95813        -1.39153
   N       -4.39930         8.10369        -0.31828
   C       -4.36781         9.39477        -0.08261
   C       -5.16536        10.18345        -0.99903
   C       -6.95513         6.66138        -4.10726
   C       -7.75593         6.73891        -5.28111
   C       -8.29045         7.91148        -5.70064
   C       -9.06167         8.06712        -6.87854
   C       -9.37779         9.26916        -7.43270
   C      -10.49989         9.40791        -8.39650
   O      -11.05737         8.52826        -9.00615
   C      -10.82597        10.85516        -8.38870
   C      -11.87135        11.50169        -9.01382
   C      -12.00046        12.87886        -8.82661
   C      -11.08243        13.57260        -8.01399
   C      -10.02111        12.91108        -7.39398
   C       -9.89295        11.54646        -7.58876
   C       -8.88871        10.59666        -7.10947
   C       -7.63822        10.91800        -6.66059
   C       -6.58803         9.98346        -6.50883
   N       -5.68386         9.28016        -6.45263
   C       -7.20804        12.24092        -6.41823
   N       -6.82369        13.30037        -6.20712
   C      -11.24284        14.96731        -7.81991
   N      -11.36805        16.09325        -7.65580
   C      -13.06211        13.57979        -9.44802
   N      -13.92655        14.12966        -9.95957
   H       -9.72231        -4.49849         1.78694
   H       -5.65143        -7.35739         2.22179
   H       -6.78334        -3.75928        -2.80738
   H       -1.47608       -10.16002        -5.10066
   H       -0.97203        -8.15200        -6.83921
   H       -4.66805        -2.85174        -5.63236
   H       -4.85439        -2.25475        -2.63084
   H       -5.36396         3.25418        -2.56922
   H       -7.02456         4.03509        -5.01456
   H       -3.78590         9.78261         0.73532
   H       -5.26717        11.25032        -0.98014
   H       -7.89286         5.84141        -5.86891
   H       -8.13299         8.79288        -5.09397
   H       -9.49504         7.18738        -7.34140
   H      -12.57177        10.95688        -9.62853
   H       -9.33833        13.46898        -6.77259
*
