# ORCA input file
# SCF done       -244.086175994232          0.004827088869
! CAM-B3LYP def2-SVP def2/J RIJCOSX Grid4 TightSCF
%maxcore 5000
%tddft
    Mode sTDDFT
    Ethresh 5.0
    maxcore 5000
end

%pal
  nprocs 6
  end
* xyz 0 1
   C       -1.33261        -1.01075         0.15371
   C       -0.22618        -1.83860         0.06607
   C        0.72323        -1.56513        -0.91404
   C        1.83960        -2.42034        -1.05755
   N        2.74160        -3.12018        -1.15426
   C        0.58783        -0.45332        -1.77344
   C        1.56643        -0.24548        -2.76896
   N        2.35411        -0.11978        -3.59190
   C       -0.51359         0.39528        -1.66180
   C       -1.46835         0.09173        -0.71325
   C       -2.77504         0.75182        -0.46671
   O       -3.20241         1.75386        -0.99101
   C       -3.47297        -0.14206         0.49016
   C       -2.50380        -1.08421         1.01528
   C       -2.57872        -1.78458         2.18865
   C       -3.66308        -1.72904         3.08706
   N       -4.48157        -1.71930         3.89191
   C       -1.54675        -2.61658         2.67023
   N       -0.74263        -3.31311         3.10150
   C       -4.82468        -0.11379         0.59907
   C       -5.69385        -1.14122         1.11369
   C       -6.84621        -0.74714         1.81628
   O       -7.13918         0.58229         1.96776
   C       -6.35345         1.31581         2.89578
   C       -6.54076         0.85036         4.33226
   C       -7.73328        -1.68178         2.36814
   O       -8.74685        -1.13702         3.07765
   C       -9.92883        -1.85946         3.38111
   C      -10.92601        -0.85402         3.93741
   C       -7.48165        -3.05565         2.16734
   O       -8.33501        -3.94080         2.74984
   C       -8.21016        -5.32999         2.51033
   C       -8.74336        -5.74179         1.14109
   C       -6.37395        -3.43141         1.41517
   C       -5.47761        -2.51426         0.89252
   C       -4.36798        -3.01266         0.05915
   C       -4.14974        -2.51810        -1.19781
   C       -3.05655        -2.97707        -1.97298
   C       -2.62368        -2.68810        -3.25873
   C       -3.14975        -1.79223        -4.32775
   C       -4.64511        -1.47355        -4.22866
   N       -5.11609        -0.89696        -5.48125
   C       -2.31273        -0.47829        -4.37914
   N       -2.48086         0.30751        -5.57390
   C       -1.41929        -3.46339        -3.47197
   C       -0.63748        -3.59707        -4.55988
   C        0.50089        -4.55313        -4.58149
   C        0.85093        -5.13329        -3.24691
   C        0.04836        -5.00135        -2.17265
   C       -1.12907        -4.22201        -2.25299
   C       -2.14920        -3.94533        -1.36088
   C       -2.42565        -4.46540        -0.07760
   C       -3.52019        -4.02914         0.59994
   C        1.69897        -4.04357        -5.34303
   C        1.97300        -2.75977        -5.53481
   C        3.02766        -2.31625        -6.46377
   C        4.38070        -2.59379        -6.28588
   O        4.88532        -3.21284        -5.18311
   C        4.33823        -2.95135        -3.89376
   C        5.47038        -2.89319        -2.87830
   C        5.32048        -2.27207        -7.29599
   O        6.65543        -2.45163        -7.16409
   C        7.30206        -2.27439        -5.90871
   C        8.75336        -1.92065        -6.19895
   C        4.85871        -1.78569        -8.53964
   O        5.61401        -1.52122        -9.63455
   C        6.81985        -2.22042        -9.90994
   C        6.61060        -3.72308       -10.04446
   C        3.52596        -1.43882        -8.66415
   C        2.60808        -1.64204        -7.63433
   C        1.22725        -1.31400        -7.79206
   C        0.60930        -0.42863        -8.62203
   C       -0.85179        -0.54820        -8.81299
   O       -1.62696        -1.19764        -8.13884
   C       -1.15929         0.25116       -10.01709
   C       -2.35010         0.35919       -10.70275
   C       -2.37151         1.12564       -11.86977
   C       -1.19984         1.76616       -12.31791
   C       -0.00470         1.67169       -11.60147
   C        0.01078         0.91308       -10.44399
   C        1.08221         0.63447        -9.48501
   C        2.19268         1.41187        -9.30348
   C        3.06997         1.29837        -8.20168
   N        3.78135         1.30847        -7.30238
   C        2.53678         2.48727       -10.15013
   N        2.85207         3.35765       -10.82854
   C       -1.23495         2.50843       -13.52455
   N       -1.25873         3.10119       -14.50399
   C       -3.56976         1.24521       -12.61310
   N       -4.54737         1.32648       -13.20446
   H       -0.09743        -2.69565         0.70695
   H       -0.62389         1.25115        -2.31050
   H       -5.32039         0.76375         0.19293
   H       -6.69299         2.34716         2.77348
   H       -5.28990         1.25648         2.61728
   H       -7.59950         0.81996         4.57299
   H       -6.03596         1.53670         5.00687
   H       -6.12106        -0.14460         4.46233
   H       -9.72142        -2.64018         4.12136
   H      -10.32725        -2.33031         2.47420
   H      -10.52259        -0.38974         4.83274
   H      -11.85749        -1.35467         4.18425
   H      -11.11950        -0.07701         3.20289
   H       -8.81965        -5.78718         3.29509
   H       -7.17335        -5.65788         2.64742
   H       -9.78495        -5.44482         1.04641
   H       -8.67438        -6.82039         1.03378
   H       -8.17780        -5.27043         0.34101
   H       -6.18832        -4.47433         1.21405
   H       -4.81821        -1.76930        -1.59136
   H       -2.98848        -2.29826        -5.28920
   H       -4.81519        -0.72127        -3.45238
   H       -5.18728        -2.39372        -3.94865
   H       -6.09867        -0.65342        -5.41102
   H       -5.01258        -1.56521        -6.24007
   H       -1.25156        -0.73709        -4.28838
   H       -2.59198         0.14232        -3.52256
   H       -3.46471         0.54218        -5.68126
   H       -2.21451        -0.23656        -6.39044
   H       -0.85063        -3.07748        -5.48413
   H        0.12446        -5.40508        -5.18247
   H        1.76238        -5.70694        -3.19546
   H        0.30681        -5.47000        -1.23462
   H       -1.77185        -5.21272         0.34748
   H       -3.75334        -4.42275         1.57914
   H        2.33605        -4.80239        -5.77742
   H        1.35732        -1.98754        -5.09221
   H        3.65035        -3.75860        -3.61996
   H        3.78324        -2.00910        -3.90038
   H        6.09850        -2.02196        -3.04169
   H        6.08045        -3.78927        -2.95123
   H        5.03829        -2.83963        -1.88376
   H        7.24243        -3.19800        -5.32405
   H        6.81729        -1.46531        -5.35334
   H        9.29108        -1.79331        -5.26384
   H        8.81008        -0.99568        -6.76778
   H        9.22406        -2.71408        -6.77363
   H        7.57931        -2.00791        -9.15413
   H        7.14067        -1.79588       -10.86576
   H        5.83397        -3.93145       -10.77750
   H        6.31812        -4.15373        -9.09012
   H        7.53616        -4.19051       -10.36877
   H        3.21017        -1.04248        -9.61575
   H        0.53164        -1.90606        -7.20672
   H       -3.23976        -0.14143       -10.35172
   H        0.87479         2.17439       -11.97253
*
