# ORCA input file
# SCF done       -248.739537946046          0.000809943011
! CAM-B3LYP def2-SVP def2/J RIJCOSX Grid4 TightSCF
%maxcore 5000
%tddft
    Mode sTDDFT
    Ethresh 5.0
    maxcore 5000
end

%pal
  nprocs 6
  end
* xyz 0 1
   C        3.20231       -13.84780         2.17887
   C        1.95235       -13.24963         2.02976
   C        1.81950       -11.85337         1.67281
   N        0.59687       -11.33227         1.47077
   C       -0.45638       -12.08038         1.67569
   C       -0.32426       -13.45537         2.07587
   N        0.85183       -14.00530         2.21803
   C       -1.49279       -14.22321         2.31079
   N       -2.46678       -14.79654         2.49767
   C       -1.74278       -11.51027         1.51895
   N       -2.79741       -11.06982         1.43479
   C        2.95370       -11.03588         1.49295
   C        4.18965       -11.63858         1.72197
   C        4.31853       -13.04504         2.03336
   N        5.61446       -13.40074         2.15181
   S        6.52829       -12.12638         1.89525
   N        5.39421       -11.04007         1.65498
   C        2.86680        -9.63492         1.07472
   C        3.79649        -9.08364         0.17304
   C        4.79527        -9.88411        -0.56804
   O        5.92361        -9.49559        -0.80561
   C        4.34374       -11.18198        -1.11102
   C        3.06913       -11.62393        -1.32562
   S        3.03192       -13.22946        -1.91722
   C        4.75528       -13.31953        -1.89565
   C        5.31998       -12.16162        -1.47279
   C        6.77797       -11.87253        -1.35408
   O        7.40295       -12.16867        -0.34707
   C        7.41927       -11.26149        -2.52665
   C        8.75296       -10.86208        -2.42091
   C        9.38837       -10.27054        -3.49363
   C        8.70207       -10.07487        -4.68240
   C        7.37784       -10.47095        -4.79552
   C        6.73395       -11.06050        -3.72536
   C        3.76042        -7.71667        -0.08665
   C        2.77342        -6.91405         0.44588
   C        1.79281        -7.46064         1.27537
   C        1.88313        -8.81169         1.60565
   C        0.66251        -6.66711         1.76709
   C        0.09737        -6.92335         2.98907
   C       -1.06191        -6.22594         3.39168
   C       -1.85915        -6.36198         4.52000
   C       -1.62797        -7.33173         5.63449
   C       -1.89436        -6.73982         7.03069
   N       -0.73802        -6.96181         7.89145
   C       -2.44877        -8.61883         5.40403
   N       -1.88454        -9.36498         4.29216
   C       -2.94594        -5.43233         4.37641
   C       -4.04370        -5.18561         5.12757
   C       -4.89260        -3.99519         4.84568
   C       -4.74908        -3.41935         3.48239
   C       -3.70894        -3.74338         2.68883
   C       -2.75640        -4.70000         3.11265
   C       -1.61793        -5.20900         2.51489
   C       -0.98758        -4.93854         1.28040
   C        0.11012        -5.65343         0.92109
   C       -4.19708        -3.10071         5.86033
   C       -4.63057        -2.88456         7.10039
   C       -3.83271        -2.21766         8.12373
   C       -4.40967        -1.53634         9.20957
   C       -5.87848        -1.35348         9.33443
   O       -6.68612        -2.22438         9.07692
   C       -6.30445        -0.01232         9.77847
   C       -5.61970         1.13975         9.50258
   S       -6.46311         2.54373         9.99813
   C       -7.76977         1.59234        10.58069
   C       -7.56137         0.25856        10.41183
   C       -8.52797        -0.77409        10.86782
   O       -9.71934        -0.65586        10.68549
   C       -7.93142        -1.92953        11.57850
   C       -8.59247        -3.15426        11.53581
   C       -8.05358        -4.25702        12.16967
   C       -6.86029        -4.14246        12.86456
   C       -6.21154        -2.91971        12.93441
   C       -6.74175        -1.81582        12.29433
   C       -3.57725        -1.04271        10.21281
   C       -2.20998        -1.21741        10.17081
   C       -1.61396        -1.84786         9.07376
   C       -2.44686        -2.32193         8.06428
   C       -0.17198        -2.08054         8.99240
   C        0.76692        -1.23740         9.62700
   C        2.18095        -1.54222         9.62897
   N        3.04927        -0.74020        10.27759
   C        2.59793         0.33083        10.87343
   C        1.20406         0.67632        10.81003
   N        0.34154        -0.10058        10.20675
   C        0.74254         1.87669        11.40514
   N        0.39325         2.84503        11.90822
   C        3.49403         1.17271        11.57976
   N        4.17962         1.87891        12.16569
   C        2.68232        -2.66702         8.97864
   C        1.78251        -3.46534         8.29771
   C        0.36296        -3.17108         8.29025
   N       -0.30838        -4.08349         7.56354
   S        0.71519        -5.15732         6.97397
   N        2.06421        -4.56524         7.57211
   H        3.27775       -14.89656         2.41039
   H        2.15223       -11.08717        -1.18089
   H        5.24468       -14.21899        -2.21149
   H        9.26539       -11.01805        -1.48396
   H       10.41810        -9.95823        -3.40619
   H        9.19780        -9.61073        -5.52207
   H        6.84613       -10.31552        -5.72250
   H        5.70209       -11.36461        -3.81896
   H        4.50991        -7.30275        -0.74513
   H        2.76930        -5.85748         0.22522
   H        1.15599        -9.23984         2.27631
   H        0.52356        -7.66442         3.64786
   H       -0.57448        -7.62638         5.59756
   H       -2.80884        -7.17782         7.45535
   H       -2.03093        -5.65804         6.97213
   H       -0.48415        -7.94365         7.92230
   H       -0.92132        -6.63700         8.83431
   H       -3.50794        -8.34601         5.26160
   H       -2.37905        -9.25862         6.29038
   H       -1.92753        -8.80539         3.44531
   H       -2.43090       -10.20265         4.12004
   H       -4.27608        -5.74689         6.02030
   H       -5.93621        -4.14303         5.12848
   H       -5.48121        -2.68503         3.18594
   H       -3.59673        -3.29317         1.71319
   H       -1.39546        -4.18254         0.62560
   H        0.56966        -5.48461        -0.04102
   H       -3.25191        -2.70762         5.51375
   H       -5.60159        -3.23987         7.41311
   H       -4.67478         1.23599         9.00447
   H       -8.61630         2.06210        11.04083
   H       -9.51798        -3.22228        10.98477
   H       -8.56255        -5.20837        12.12311
   H       -6.43670        -5.00490        13.35834
   H       -5.28885        -2.82796        13.48897
   H       -6.24425        -0.85914        12.37011
   H       -4.01695        -0.54946        11.06682
   H       -1.60617        -0.87183        10.99294
   H       -2.00001        -2.83421         7.23010
   H        3.73573        -2.88757         9.00666
*
