# ORCA input file
# SCF done       -265.082839134177          0.000734077099
! CAM-B3LYP def2-SVP def2/J RIJCOSX Grid4 TightSCF
%maxcore 5000
%tddft
    Mode sTDDFT
    Ethresh 5.0
    maxcore 5000
end

%pal
  nprocs 6
  end
* xyz 0 1
   C       -7.93788       -14.48787        -2.86877
   C       -7.91873       -14.54567        -1.48077
   C       -8.82554       -15.42556        -0.72365
   O       -9.70456       -16.11140        -1.15278
   S       -8.39400       -15.32972         1.01452
   C       -7.04758       -14.17036         0.72617
   O       -6.28684       -13.86082         1.59849
   C       -7.02410       -13.80002        -0.69748
   C       -6.11605       -12.89441        -1.28274
   C       -6.09875       -12.90659        -2.68554
   C       -6.98360       -13.67409        -3.45161
   C       -6.67354       -13.42127        -4.87299
   O       -7.17395       -13.85408        -5.86391
   O       -5.61755       -12.53139        -4.89802
   C       -5.23011       -12.18254        -3.62642
   O       -4.32000       -11.42790        -3.42686
   C       -5.24737       -11.98577        -0.57356
   C       -5.57063       -11.32476         0.54655
   C       -4.68275       -10.37647         1.19647
   C       -4.75146       -10.19201         2.58472
   C       -5.76459       -10.89660         3.42591
   O       -6.94909       -10.67502         3.38547
   C       -5.16785       -11.90761         4.33477
   C       -4.44392       -12.98028         3.91764
   S       -4.02254       -14.02076         5.21746
   C       -4.81266       -12.99765         6.34488
   C       -5.38655       -11.91355         5.74688
   C       -5.99361       -10.75813         6.44376
   O       -5.74918        -9.62612         6.07432
   C       -6.84757       -11.05354         7.61397
   C       -7.52055       -12.26634         7.74933
   C       -8.31910       -12.49197         8.85510
   C       -8.44891       -11.51862         9.83329
   C       -7.79225       -10.30528         9.69809
   C       -7.00280       -10.06963         8.58988
   C       -3.84794        -9.34644         3.21587
   C       -2.90238        -8.65409         2.48374
   C       -2.83296        -8.80128         1.09736
   C       -3.72809        -9.66532         0.47495
   C       -1.84296        -8.08089         0.28756
   C       -1.29207        -8.69149        -0.81600
   C       -0.36785        -8.00326        -1.62168
   C        0.29514        -8.37836        -2.79152
   C        0.15678        -9.63929        -3.56391
   C        0.65873       -10.85457        -2.75025
   N        1.11669       -11.86919        -3.67142
   C       -1.29985        -9.84799        -4.03429
   N       -1.40841       -11.04308        -4.85490
   C        1.16220        -7.27975        -3.14439
   C        2.06371        -7.14690        -4.13836
   C        2.88671        -5.91822        -4.27634
   C        2.58118        -4.84594        -3.29071
   C        1.68321        -4.99872        -2.29347
   C        0.96696        -6.20672        -2.16790
   C        0.02647        -6.66006        -1.24444
   C       -0.54489        -6.05994        -0.10776
   C       -1.46031        -6.75451         0.62992
   C        2.83192        -5.45942        -5.71883
   C        2.20453        -4.36609        -6.13361
   C        2.17248        -3.99463        -7.54305
   C        1.00650        -3.49510        -8.14352
   C       -0.23139        -3.32094        -7.34578
   O       -0.51659        -3.99524        -6.38196
   C       -1.13424        -2.25190        -7.86020
   C       -2.41051        -2.45880        -8.27200
   S       -3.13833        -1.02456        -8.88943
   C       -1.72106        -0.12355        -8.57003
   C       -0.72951        -0.88448        -8.01257
   C        0.58914        -0.41703        -7.55261
   O        1.32090        -1.13839        -6.90489
   C        0.97387         0.96504        -7.94556
   C        2.09173         1.14216        -8.75403
   C        2.47181         2.41704        -9.13383
   C        1.75846         3.51843        -8.69109
   C        0.66030         3.34495        -7.86451
   C        0.26203         2.07239        -7.49573
   C        1.01065        -3.19316        -9.50424
   C        2.14338        -3.37356       -10.26830
   C        3.31683        -3.82799        -9.66968
   C        3.32084        -4.12496        -8.31521
   C        4.53147        -4.03171       -10.46841
   C        5.14165        -3.01792       -11.21763
   C        4.70576        -1.61372       -11.18347
   O        3.82242        -1.11963       -10.54254
   S        5.75827        -0.64832       -12.26698
   C        6.76152        -2.06833       -12.73250
   O        7.66635        -1.98244       -13.51048
   C        6.27248        -3.25358       -12.01538
   C        6.87340        -4.51987       -12.12611
   C        6.28634        -5.51534       -11.33714
   C        5.16318        -5.27424       -10.53417
   C        4.83975        -6.53708        -9.83870
   O        3.96419        -6.80523        -9.06991
   O        5.78394        -7.45783       -10.21642
   C        6.69350        -6.91686       -11.10173
   O        7.61408        -7.55089       -11.51837
   C        8.03099        -4.74918       -12.97901
   C        8.17021        -5.79508       -13.78212
   H       -8.64067       -15.06698        -3.44534
   H       -4.30909       -11.78202        -1.07089
   H       -6.52374       -11.48901         1.02692
   H       -4.18733       -13.24757         2.91269
   H       -4.78116       -13.23000         7.39125
   H       -7.44025       -13.01747         6.97806
   H       -8.84524       -13.42982         8.95470
   H       -9.06931       -11.70319        10.69787
   H       -7.90121        -9.54357        10.45572
   H       -6.48789        -9.12921         8.46079
   H       -3.91465        -9.21550         4.28583
   H       -2.20302        -8.00873         2.99331
   H       -3.72203        -9.74705        -0.60105
   H       -1.54843        -9.71190        -1.04955
   H        0.79015        -9.58668        -4.45411
   H       -0.14730       -11.19715        -2.08324
   H        1.50597       -10.54895        -2.12601
   H        0.33747       -12.13841        -4.26705
   H        1.46467       -12.68426        -3.18082
   H       -1.62523        -8.93334        -4.55480
   H       -1.95149        -9.98516        -3.17135
   H       -1.08775       -10.85845        -5.79990
   H       -2.37835       -11.33521        -4.90022
   H        2.22801        -7.92511        -4.87057
   H        3.93438        -6.22599        -4.10740
   H        3.13893        -3.92863        -3.40135
   H        1.50443        -4.20277        -1.58554
   H       -0.26227        -5.05493         0.16824
   H       -1.92598        -6.29000         1.48594
   H        3.29559        -6.12802        -6.43177
   H        1.67115        -3.72681        -5.44589
   H       -2.95677        -3.38094        -8.27636
   H       -1.69587         0.92226        -8.80364
   H        2.64398         0.28028        -9.09486
   H        3.33174         2.54765        -9.77324
   H        2.06077         4.51315        -8.98331
   H        0.11136         4.20319        -7.50566
   H       -0.58215         1.93775        -6.83437
   H        0.10730        -2.83597        -9.97699
   H        2.12226        -3.16499       -11.32723
   H        4.23669        -4.44382        -7.84195
   H        8.77378        -3.96351       -12.97233
   H        7.42096        -6.56317       -13.86558
   H        9.04127        -5.90400       -14.40356
*
