# ORCA input file
# SCF done       -184.939886206418          0.000906072802
! CAM-B3LYP def2-SVP def2/J RIJCOSX Grid4 TightSCF
%maxcore 5000
%tddft
    Mode sTDDFT
    Ethresh 5.0
    maxcore 5000
end

%pal
  nprocs 6
  end
* xyz 0 1
   C        1.98807        -2.17869         0.42753
   O        2.77060        -2.92291        -0.10244
   C        0.58221        -2.41407         0.82601
   C        0.10654        -1.26653         1.46655
   C       -1.18273        -1.20130         1.95243
   C       -1.99290        -2.31986         1.78179
   C       -1.52115        -3.45804         1.14567
   C       -0.22018        -3.52317         0.65621
   C        1.19386        -0.26123         1.49179
   O        1.20741         0.84587         1.95916
   N        2.26392        -0.86370         0.82117
   C        3.51533        -0.25557         0.66611
   C        4.23189         0.35631         1.63521
   C        5.51195         0.74302         1.05659
   C        6.50941         1.44425         1.74344
   N        7.33735         2.01062         2.30245
   C        5.57194         0.30360        -0.23637
   C        4.30913        -0.30477        -0.56497
   C        3.88367        -0.71656        -1.80391
   C        4.73561        -1.01502        -2.98034
   C        3.90335        -1.18402        -4.05197
   C        2.54135        -1.02534        -3.60581
   C        2.52859        -0.78560        -2.25323
   C        1.41774        -1.11655        -4.43742
   N        0.49973        -1.19619        -5.12244
   C        6.13807        -1.24700        -2.91091
   C        6.97285        -1.25642        -3.97760
   C        8.38829        -1.48857        -3.93519
   C        9.14269        -1.23099        -5.06927
   C       10.53445        -1.39729        -5.05035
   C       11.49964        -1.17702        -6.03507
   C       11.25623        -0.76720        -7.44404
   C       11.92379         0.58522        -7.78221
   N       11.22134         1.19563        -8.88388
   C       11.70283        -1.87857        -8.41439
   N       11.27195        -1.57745        -9.76721
   C       12.77694        -1.47045        -5.43162
   C       14.03674        -1.34177        -5.89045
   C       15.22021        -1.72159        -5.06865
   C       14.89159        -2.23420        -3.70904
   C       13.63053        -2.31259        -3.24092
   C       12.54082        -1.92589        -4.05587
   C       11.17669        -1.86219        -3.83173
   C       10.38701        -2.15115        -2.69817
   C        9.04238        -1.96631        -2.75336
   C       16.01762        -2.72355        -5.88291
   C       16.81807        -2.34897        -6.87913
   C       17.56614        -3.23747        -7.73648
   C       18.20106        -4.38915        -7.39891
   C       18.96352        -4.84672        -8.55003
   C       19.75275        -6.00048        -8.58089
   N       20.42778        -6.93012        -8.60127
   C       18.81506        -3.94990        -9.57530
   C       17.91396        -2.92496        -9.13538
   C       17.36178        -1.91492        -9.89135
   C       17.86409        -1.33942       -11.15255
   C       16.92347        -0.44379       -11.59441
   C       15.82220        -0.43099       -10.66730
   C       16.10433        -1.28831        -9.62955
   C       14.66198         0.34336       -10.78358
   N       13.71056         0.98415       -10.84609
   C       19.16145        -1.58567       -11.68769
   C       19.58820        -1.17532       -12.90560
   C       20.89408        -1.37483       -13.43866
   C       21.79546        -2.36146       -13.17367
   C       21.54574        -3.62723       -12.43995
   O       20.46341        -4.13647       -12.26757
   O       22.69407        -4.18113       -12.04361
   C       22.60333        -5.45113       -11.41302
   C       23.08007        -2.26421       -13.75205
   N       24.11843        -2.16604       -14.22997
   H       -1.54188        -0.31209         2.44627
   H       -3.00691        -2.30060         2.15173
   H       -2.17456        -4.30924         1.02766
   H        0.15447        -4.40422         0.15928
   H        3.93799         0.54139         2.65026
   H        6.36940         0.49759        -0.92731
   H        4.17675        -1.44750        -5.05605
   H        1.65487        -0.57181        -1.66760
   H        6.53052        -1.43212        -1.92235
   H        6.56809        -1.01650        -4.95227
   H        8.65535        -0.87298        -5.96480
   H       10.18153        -0.61748        -7.58520
   H       12.99267         0.42046        -7.98994
   H       11.84710         1.24704        -6.91205
   H       11.30933         0.60102        -9.70365
   H       11.60646         2.10601        -9.10420
   H       11.31450        -2.84177        -8.03700
   H       12.79371        -1.94640        -8.42256
   H       10.25901        -1.58885        -9.82567
   H       11.63165        -2.26478       -10.41965
   H       14.24745        -0.96130        -6.87859
   H       15.84759        -0.82326        -4.95835
   H       15.73160        -2.54041        -3.10403
   H       13.43472        -2.67302        -2.24176
   H       10.85857        -2.51364        -1.79690
   H        8.44260        -2.19795        -1.88769
   H       15.83600        -3.76505        -5.66614
   H       16.94226        -1.29256        -7.09002
   H       18.20107        -4.87738        -6.44251
   H       19.19629        -4.07117       -10.57096
   H       16.98154         0.18934       -12.45952
   H       15.43846        -1.54955        -8.82972
   H       19.85522        -2.09974       -11.04096
   H       18.92241        -0.59070       -13.52694
   H       21.21243        -0.62857       -14.16061
   H       22.06856        -6.15528       -12.05355
   H       22.07382        -5.37469       -10.46051
   H       23.62638        -5.77979       -11.25241
*
