# ORCA input file
# SCF done       -238.951825208308          0.000933145619
! CAM-B3LYP def2-SVP def2/J RIJCOSX Grid4 TightSCF
%maxcore 5000
%tddft
    Mode sTDDFT
    Ethresh 5.0
    maxcore 5000
end

%pal
  nprocs 6
  end
* xyz 0 1
   C        9.50096         2.99631        13.22798
   C        8.89500         3.53936        14.32629
   F        7.60053         3.27083        14.56976
   C        9.57594         4.37057        15.22662
   C       10.89402         4.65264        15.00040
   C       11.56792         4.12215        13.88127
   C       10.85781         3.27655        12.97929
   C       11.51108         2.73612        11.84896
   C       12.82540         3.04451        11.62265
   C       13.53070         3.89423        12.52557
   C       12.92569         4.41885        13.63181
   C       14.90413         4.10834        12.03297
   O       15.80293         4.72395        12.55678
   C       14.92450         3.47707        10.68112
   C       13.73394         2.65025        10.55489
   C       13.58743         1.57664         9.72088
   C       14.63127         1.07788         8.91478
   N       15.46514         0.58971         8.29522
   C       12.40365         0.81932         9.61926
   N       11.44814         0.20171         9.46804
   C       15.81997         3.88965         9.75149
   C       15.80019         3.65919         8.34028
   C       16.93564         3.41442         7.61804
   C       16.55648         2.95442         6.30414
   C       17.43686         2.61960         5.27288
   N       18.12980         2.39863         4.38201
   C       15.18901         2.94958         6.21239
   C       14.65264         3.52239         7.41841
   C       13.39578         4.06163         7.58523
   C       12.20326         3.88267         6.71483
   C       11.10475         4.13348         7.48827
   C       11.54039         4.65831         8.75786
   C       12.91280         4.67369         8.78887
   C       10.70192         5.08246         9.79562
   N       10.03164         5.40873        10.66944
   C       12.13735         3.62943         5.30883
   C       13.07499         4.02428         4.42361
   C       13.06444         3.77008         3.00125
   C       14.27857         3.57274         2.36979
   C       14.32533         3.29474         0.99584
   C       15.39518         3.00507         0.14487
   C       16.81050         2.74464         0.50265
   C       17.50992         3.97283         1.12877
   N       18.85897         3.62763         1.53346
   C       16.89561         1.50244         1.42679
   N       18.05805         0.73138         1.05196
   C       14.83755         2.85350        -1.17877
   C       15.42763         2.57362        -2.35728
   C       14.63550         2.43998        -3.60325
   C       13.17728         2.75033        -3.45402
   C       12.59708         2.99921        -2.26260
   C       13.38717         3.05249        -1.09336
   C       13.08494         3.30003         0.23877
   C       11.85870         3.50466         0.90437
   C       11.85290         3.70600         2.25144
   C       14.68602         1.03533        -4.16771
   C       15.14488        -0.04341        -3.53060
   C       15.07081        -1.36773        -4.10274
   C       16.04775        -2.30910        -4.09711
   C       15.64488        -3.38874        -4.97860
   C       16.39479        -4.55062        -5.19554
   N       17.01726        -5.50062        -5.36458
   C       14.43257        -3.08339        -5.54531
   C       13.97431        -1.85722        -4.97288
   C       12.71304        -1.30160        -5.01637
   C       11.68276        -1.38892        -6.06400
   C       10.63003        -0.60328        -5.66747
   C       10.91954        -0.05100        -4.36785
   C       12.17933        -0.44214        -3.99504
   C       10.06560         0.76584        -3.61766
   N        9.39227         1.45593        -2.99373
   C       11.78990        -2.09750        -7.30214
   C       11.30124        -1.69695        -8.50653
   C       10.78993        -0.40271        -8.76044
   C       10.18351         0.09497        -9.87490
   C        9.46146         1.39229        -9.73914
   O        9.58370         2.18952        -8.83570
   C        8.54094         1.45146       -10.88704
   C        7.57421         2.37390       -11.16696
   C        6.77330         2.20477       -12.31792
   C        6.98514         1.06967       -13.15372
   C        6.17620         0.90052       -14.29413
   C        5.21197         1.82775       -14.57643
   C        4.99016         2.95172       -13.76879
   C        5.76459         3.13007       -12.65653
   F        4.43952         1.66893       -15.66596
   C        7.99852         0.13323       -12.84173
   C        8.77323         0.32669       -11.73030
   C        9.90198        -0.43362       -11.19271
   C       10.66536        -1.30586       -11.92350
   C       11.91683        -1.81333       -11.51904
   N       12.96348        -2.21236       -11.26723
   C       10.34823        -1.71328       -13.23670
   N       10.13162        -2.09429       -14.29755
   H        8.94596         2.36311        12.55408
   H        9.04470         4.77133        16.07540
   H       11.43848         5.29258        15.67839
   H       10.94958         2.10952        11.17384
   H       13.47567         5.05955        14.30487
   H       16.67150         4.44376        10.13506
   H       17.94541         3.44745         7.98259
   H       14.61805         2.58224         5.38413
   H       10.07730         4.05903         7.18530
   H       13.51362         5.08825         9.57249
   H       11.22611         3.16186         4.95817
   H       13.95046         4.54653         4.78863
   H       15.18857         3.59422         2.95091
   H       17.36849         2.48346        -0.40038
   H       16.89819         4.35792         1.95758
   H       17.56053         4.75490         0.36533
   H       18.84942         3.16198         2.43687
   H       19.43563         4.45542         1.61890
   H       16.01222         0.87207         1.27411
   H       16.89526         1.82871         2.47676
   H       18.89348         1.29580         1.16464
   H       18.14344        -0.10394         1.61830
   H       16.49457         2.41882        -2.44003
   H       15.06858         3.10690        -4.36447
   H       12.58973         2.71916        -4.35871
   H       11.53368         3.17379        -2.19569
   H       10.93807         3.49254         0.34080
   H       10.92100         3.86586         2.77174
   H       14.24229         0.93846        -5.14888
   H       15.65117         0.04516        -2.57805
   H       16.98962        -2.26876        -3.58328
   H       13.88008        -3.73083        -6.19659
   H        9.69737        -0.46537        -6.18186
   H       12.64773        -0.23091        -3.05414
   H       12.29602        -3.05129        -7.27247
   H       11.36073        -2.39691        -9.32512
   H       10.84203         0.30806        -7.94241
   H        7.42196         3.22259       -10.51705
   H        6.32145         0.04936       -14.94084
   H        4.21469         3.64960       -14.04203
   H        5.61252         3.98762       -12.01851
   H        8.12834        -0.72024       -13.48793
*
