# ORCA input file
# SCF done       -208.884942208040          0.000960714605
! CAM-B3LYP def2-SVP def2/J RIJCOSX Grid4 TightSCF
%maxcore 5000
%tddft
    Mode sTDDFT
    Ethresh 5.0
    maxcore 5000
end

%pal
  nprocs 6
  end
* xyz 0 1
   C       -9.00805        -9.14963        13.46269
   C       -8.67175       -10.44435        13.83156
   C       -7.52413       -11.05341        13.34545
   C       -6.67270       -10.38160        12.48028
   C       -7.00109        -9.09153        12.10232
   C       -8.17406        -8.47096        12.58921
   C       -8.27506        -7.13436        12.01292
   C       -9.21568        -6.18833        12.33349
   C      -10.23613        -6.37659        13.28806
   N      -11.08975        -6.46021        14.05135
   C       -9.26886        -4.89016        11.78870
   N       -9.35664        -3.82095        11.37644
   C       -7.19988        -7.01775        11.04258
   C       -6.30051        -8.13651        11.25819
   C       -4.95663        -8.14332        10.98276
   C       -4.27002        -7.00713        10.50765
   N       -3.67682        -6.07952        10.18172
   C       -4.10378        -9.23284        11.24100
   N       -3.36792       -10.09977        11.40135
   C       -7.15152        -6.07823        10.04057
   C       -6.46877        -6.12683         8.81988
   S       -5.78010        -7.56303         8.06235
   C       -5.28779        -6.72100         6.60004
   C       -5.66671        -5.39430         6.71382
   C       -6.32969        -5.07525         7.92028
   N       -6.62348        -3.74525         7.88512
   C       -6.16582        -3.20715         6.70635
   S       -6.29582        -1.64921         6.23035
   N       -5.58966        -4.22650         5.99441
   C       -4.59635        -7.43504         5.59632
   C       -4.22912        -6.93095         4.39157
   C       -3.45481        -7.59921         3.38631
   C       -2.86340        -8.83054         3.58520
   C       -2.05535        -9.40167         2.58677
   C       -1.32688       -10.58436         2.57204
   C       -1.27086       -11.59763         3.66322
   C       -1.79803       -12.96702         3.20277
   N       -3.19149       -12.84967         2.80460
   C        0.14330       -11.72921         4.25931
   N        0.10073       -12.57127         5.44184
   C       -0.62829       -10.62295         1.30738
   C        0.25508       -11.49790         0.79292
   C        0.91757       -11.26605        -0.52604
   C        0.42903       -10.06615        -1.26773
   C       -0.45325        -9.19840        -0.74159
   C       -0.99582        -9.41648         0.54815
   C       -1.85796        -8.68395         1.33329
   C       -2.50021        -7.43732         1.13968
   C       -3.26127        -6.91971         2.13307
   C        0.91928       -12.54450        -1.32207
   C        0.35431       -12.70650        -2.52169
   C        0.41111       -13.91887        -3.28130
   S        0.04138       -13.89096        -4.99631
   C        0.44425       -15.58515        -5.23516
   C        0.78842       -16.12449        -4.00855
   C        0.77553       -15.19950        -2.93123
   N        1.09367       -15.92099        -1.80669
   C        1.24706       -17.24649        -2.13807
   S        1.58821       -18.45291        -1.09089
   N        1.09318       -17.35309        -3.49765
   C        0.43901       -16.20197        -6.50488
   C        1.22945       -17.26784        -6.81225
   C        1.23985       -17.93392        -8.06191
   C        0.16103       -18.14931        -8.87607
   C        0.22286       -18.43229       -10.30531
   C        1.32588       -18.78254       -11.03648
   C        2.62650       -18.96918       -10.52216
   N        3.70841       -19.14056       -10.17808
   C        1.30608       -19.04469       -12.42348
   N        1.36522       -19.26974       -13.54730
   C       -1.12631       -18.25416       -10.82709
   C       -2.00745       -18.01537        -9.74750
   C       -3.35575       -17.79047        -9.97252
   C       -3.82091       -17.80867       -11.27880
   C       -2.95968       -18.05293       -12.33906
   C       -1.60745       -18.27733       -12.12656
   C       -1.24740       -18.08848        -8.51015
   C       -1.77568       -18.34398        -7.26869
   C       -3.15774       -18.36679        -6.99054
   N       -4.26794       -18.37605        -6.69958
   C       -1.00908       -18.68788        -6.14261
   N       -0.43523       -19.01451        -5.20101
   H       -9.90425        -8.69387        13.85050
   H       -9.31785       -10.98449        14.50665
   H       -7.28821       -12.06380        13.64282
   H       -5.78421       -10.86291        12.10412
   H       -7.78860        -5.20961        10.14593
   H       -7.08452        -3.19933         8.59546
   H       -5.13938        -4.07533         5.10808
   H       -4.35867        -8.45738         5.85231
   H       -4.53472        -5.92310         4.14286
   H       -2.99323        -9.35165         4.52095
   H       -1.92772       -11.25893         4.47226
   H       -1.62512       -13.68007         4.02380
   H       -1.24015       -13.30902         2.32879
   H       -3.76142       -12.57577         3.59847
   H       -3.53826       -13.74261         2.47232
   H        0.53170       -10.71472         4.45484
   H        0.81018       -12.20837         3.53956
   H       -0.44094       -12.12486         6.17498
   H        1.03512       -12.72717         5.80256
   H        0.54996       -12.39489         1.31860
   H        1.98107       -11.07527        -0.28386
   H        0.86785        -9.89805        -2.23928
   H       -0.75837        -8.32173        -1.29408
   H       -2.36726        -6.90768         0.20798
   H       -3.74780        -5.96402         1.99948
   H        1.44594       -13.36520        -0.85430
   H       -0.15155       -11.88171        -3.00224
   H        1.11044       -15.60311        -0.85311
   H        0.93580       -18.23534        -3.97686
   H       -0.17823       -15.75054        -7.27134
   H        1.99154       -17.56456        -6.10399
   H        2.21203       -18.25929        -8.40725
   H       -4.03269       -17.59291        -9.15720
   H       -4.86766       -17.62942       -11.47052
   H       -3.34413       -18.06631       -13.34736
   H       -0.95379       -18.46115       -12.96308
*
