# ORCA input file
# SCF done       -178.952380659105          0.000386003304
! CAM-B3LYP def2-SVP def2/J RIJCOSX Grid4 TightSCF
%maxcore 5000
%tddft
    Mode sTDDFT
    Ethresh 5.0
    maxcore 5000
end

%pal
  nprocs 6
  end
* xyz 0 1
   C       -1.67623        -0.82661         0.56885
   C       -1.73730        -1.67755        -0.50704
   C       -0.85617        -2.76200        -0.68954
   N       -0.14535        -3.64391        -0.87735
   C       -2.68754        -1.58377        -1.54302
   N       -3.42595        -1.54448        -2.42212
   C       -0.71259        -0.90602         1.66120
   C       -1.08770         0.02308         2.66275
   C       -0.32297         0.25532         3.77931
   C        0.88539        -0.44190         3.90038
   C        1.23989        -1.38002         2.90272
   C        0.45193        -1.63732         1.78723
   S        2.78836        -2.09830         3.22046
   C        2.93018        -1.15176         4.67893
   C        1.88058        -0.33028         4.91005
  Br        4.44405        -1.36124         5.74954
   C       -2.31891         0.71633         2.23482
   O       -2.95058         1.53305         2.88102
   C       -2.56401         0.27534         0.85786
   C       -3.33647         0.94392        -0.06907
   C       -4.21743         2.00567         0.11592
   C       -4.81583         2.74611        -0.94374
   C       -5.75056         3.71165        -0.48846
   N       -6.42830         4.53039        -1.29388
   C       -6.19868         4.42539        -2.58161
   C       -5.30545         3.50405        -3.14511
   C       -4.60539         2.64876        -2.32512
   C       -5.93550         3.66702         0.92539
   S       -4.82682         2.54698         1.65241
   C       -6.95164         4.32969         1.60037
   C       -7.37020         4.03982         2.88892
   C       -8.59305         4.40749         3.49263
   C       -8.89599         3.69183         4.62134
   C       -7.90332         2.75971         4.97075
   S       -6.53420         2.88679         3.89307
   C       -7.92779         1.67568         5.84476
   C       -9.00582         1.07152         6.51239
   C       -8.72773        -0.19703         6.95176
   C       -7.41609        -0.63123         6.66729
   S       -6.50390         0.66613         5.93939
   C       -6.93132        -1.92830         6.72716
   C       -5.65645        -2.33720         6.35909
   C       -5.25398        -3.65578         6.01095
   C       -3.89820        -3.73053         5.58756
   N       -3.31048        -4.87097         5.21357
   C       -4.04517        -5.95577         5.20467
   C       -5.39738        -5.99066         5.56982
   C       -6.01074        -4.83154         5.98765
   C       -3.21405        -2.48991         5.68780
   S       -4.30868        -1.24822         6.21110
   C       -1.84337        -2.25816         5.61487
   C       -0.89731        -3.06078         5.01086
   C       -1.00560        -3.95819         3.90043
   C       -1.96608        -3.90217         2.91554
   C       -2.05535        -4.79834         1.83608
   N       -2.20647        -5.52099         0.95602
   C       -2.95078        -2.90353         2.86281
   N       -3.73566        -2.07188         2.73588
   C        0.20470        -4.77176         3.86865
   C        1.08443        -4.30893         4.87953
   C        0.45994        -3.16441         5.57508
   O        0.95299        -2.47490         6.44578
   C        2.32177        -4.86338         5.09428
   C        2.71302        -5.92076         4.26501
   C        1.83271        -6.36775         3.25194
   C        0.57821        -5.80691         3.03614
   S        2.52018        -7.67785         2.34243
   C        3.96132        -7.60653         3.32143
   C        3.93232        -6.65144         4.28064
  Br        5.36639        -8.80283         2.98815
   H       -0.62851         0.97574         4.52182
   H        0.77471        -2.35181         1.04813
   H        1.80140         0.31205         5.76743
   H       -3.22187         0.63463        -1.10100
   H       -6.75620         5.10556        -3.21151
   H       -5.17583         3.46995        -4.21515
   H       -3.91887         1.92398        -2.73659
   H       -7.54074         5.02109         1.01229
   H       -9.24394         5.13820         3.04614
   H       -9.81093         3.79407         5.17694
   H       -9.96885         1.54284         6.59330
   H       -9.44407        -0.84065         7.43126
   H       -7.63931        -2.69944         7.00064
   H       -3.53654        -6.85690         4.88857
   H       -5.94015        -6.92131         5.52837
   H       -7.04675        -4.82851         6.29261
   H       -1.45560        -1.42903         6.19798
   H        2.97540        -4.49130         5.86830
   H       -0.06086        -6.17807         2.25192
   H        4.73519        -6.46691         4.97089
*
