# ORCA input file
# SCF done       -189.785904670463          0.000749629651
! CAM-B3LYP def2-SVP def2/J RIJCOSX Grid4 TightSCF
%maxcore 5000
%tddft
    Mode sTDDFT
    Ethresh 5.0
    maxcore 5000
end

%pal
  nprocs 6
  end
* xyz 0 1
   C      -11.86804         4.18665         2.25212
   C      -12.14188         3.38197         3.33275
   C      -13.18726         3.62002         4.24734
   N      -14.01993         3.75698         5.02687
   C      -11.45166         2.20362         3.67859
   N      -10.94943         1.22879         4.02524
   C      -12.62279         5.37852         1.87985
   C      -12.09876         5.88591         0.66554
   C      -12.59623         7.00779         0.05072
   C      -13.66223         7.67047         0.66876
   C      -14.17686         7.16172         1.88433
   C      -13.67621         6.02234         2.50262
   S      -15.48476         8.13839         2.48187
   C      -15.32357         9.20095         1.10870
   C      -14.34278         8.84485         0.24593
  Br      -16.46374        10.68148         0.94496
   C      -10.97536         5.03468         0.23144
   O      -10.31952         5.17750        -0.78465
   C      -10.82085         4.00685         1.26651
   C       -9.81907         3.07098         1.34080
   C       -8.73146         2.82160         0.49402
   S       -8.36203         3.67018        -0.98553
   C       -6.92117         2.77330        -1.15746
   C       -6.67998         1.87890        -0.14874
   C       -5.48970         0.97681        -0.13349
   C       -7.72425         1.88382         0.80583
   C       -7.78642         1.00407         1.94728
   C       -6.72838         0.70210         2.72766
   C       -6.77385        -0.23457         3.80025
   C       -5.75165        -0.38948         4.67148
   C       -5.70859        -1.38502         5.68268
   N       -6.49620        -2.41256         5.79152
   C       -6.13021        -3.21351         6.79770
   C       -5.03135        -2.79330         7.52110
   S       -4.41496        -1.32352         6.91243
   C       -4.79891        -3.72793         8.63953
   C       -5.36027        -5.00310         8.00007
   C       -6.67226        -4.54359         7.29351
   C       -7.83824        -4.28385         8.26266
   C       -8.43077        -5.53954         8.89210
   C       -7.05508        -5.47523         6.13602
   C       -8.23650        -4.97391         5.31324
   N       -5.25761        -6.05794         8.99061
   C       -4.28774        -5.69478        10.00178
   S       -3.23077        -4.32776         9.34237
   C       -5.25666        -7.34807         8.51080
   C       -5.11534        -8.47830         9.24972
   C       -5.05450        -8.68982        10.65768
   C       -4.86108        -9.98379        11.01799
   C       -4.72765       -10.88536         9.93210
   S       -4.94438       -10.03188         8.41593
   C       -4.43175       -12.22799         9.97061
   C       -4.19539       -13.03866        11.10843
   C       -3.87387       -14.32081        10.80449
   C       -3.80554       -14.60772         9.40838
   S       -4.21495       -13.16482         8.50310
   C       -3.53578       -15.84628         8.90326
   C       -3.43582       -16.32614         7.56149
   C       -3.12142       -15.56473         6.42708
   O       -2.76916       -14.28490         6.70118
   C       -2.57484       -13.29223         5.71942
   C       -3.10143       -16.16015         5.12312
   O       -2.81414       -15.32507         4.07959
   C       -2.77255       -15.85481         2.77732
   C       -3.34575       -17.50120         4.94323
   C       -3.59939       -18.30337         6.06317
   C       -3.63641       -17.72189         7.37341
   N       -3.88966       -18.62410         8.31495
   S       -4.05595       -20.06963         7.61337
   N       -3.82208       -19.61560         6.08234
   H      -12.17427         7.36581        -0.87523
   H      -14.10277         5.67836         3.42978
   H      -14.10626         9.38705        -0.65134
   H       -9.83364         2.43223         2.21413
   H       -6.29411         2.94271        -2.01234
   H       -5.16196         0.77645        -1.15101
   H       -5.72677         0.03627         0.35840
   H       -4.66064         1.44271         0.39876
   H       -8.74988         0.57379         2.19062
   H       -5.78521         1.20636         2.56702
   H       -7.65563        -0.84956         3.90697
   H       -4.88973         0.26240         4.61899
   H       -5.38222        -3.40844         9.51236
   H       -4.67343        -5.25430         7.17004
   H       -7.49420        -3.61848         9.05774
   H       -8.61397        -3.74708         7.71492
   H       -9.20402        -5.25662         9.60290
   H       -7.67023        -6.10830         9.41990
   H       -8.88356        -6.18115         8.14186
   H       -6.18769        -5.56913         5.47648
   H       -7.27996        -6.46571         6.53529
   H       -8.05933        -3.95163         4.99214
   H       -9.15994        -5.00970         5.88426
   H       -8.35962        -5.60082         4.43314
   H       -3.64091        -6.53203        10.25845
   H       -4.77820        -5.30647        10.89950
   H       -5.39446        -7.44852         7.44308
   H       -5.19644        -7.88569        11.35756
   H       -4.79911       -10.32147        12.03715
   H       -4.26290       -12.65046        12.10926
   H       -3.66199       -15.08415        11.53259
   H       -3.45369       -16.63751         9.63941
   H       -3.44677       -13.18248         5.07309
   H       -1.69033       -13.49343         5.11272
   H       -2.43069       -12.37151         6.28523
   H       -1.99864       -16.62226         2.67963
   H       -2.52934       -15.01190         2.13190
   H       -3.73988       -16.27138         2.48082
   H       -3.33215       -17.96473         3.97274
*
