# ORCA input file
# SCF done       -220.452532938131          0.000476839189
! CAM-B3LYP def2-SVP def2/J RIJCOSX Grid4 TightSCF
%maxcore 5000
%tddft
    Mode sTDDFT
    Ethresh 5.0
    maxcore 5000
end

%pal
  nprocs 6
  end
* xyz 0 1
   C       -7.38143        -1.87392         1.79483
   C       -6.59212        -2.74415         2.49696
   C       -6.76711        -4.14434         2.50824
   N       -6.85527        -5.28771         2.54938
   C       -5.50741        -2.36066         3.31397
   N       -4.62666        -2.11464         4.00812
   C       -8.55546        -2.22488         1.00803
   C       -9.14700        -1.03994         0.50215
   C      -10.28927        -1.04988        -0.26065
   C      -10.87804        -2.28743        -0.53892
   C      -10.27414        -3.46733        -0.03983
   C       -9.11962        -3.45789         0.73128
   S      -11.15889        -4.88646        -0.51109
   C      -12.31344        -3.89040        -1.35644
   C      -12.05167        -2.56292        -1.29159
  Br      -13.75251        -4.69672        -2.24717
   C       -8.34233         0.12635         0.91200
   O       -8.46774         1.26801         0.53475
   C       -7.24684        -0.42526         1.76075
   C       -6.25554         0.34388         2.26530
   C       -6.30508         1.79628         2.25282
   C       -5.30241         2.50076         1.57243
   C       -5.34279         3.87075         1.43126
   C       -6.37449         4.61115         2.00289
   C       -7.33403         3.94634         2.72833
   C       -7.30903         2.55003         2.86512
   N       -8.30582         2.15332         3.73698
   C       -8.57433         0.82909         4.21774
   C       -9.03361         3.22754         4.19347
   O       -9.90868         3.16855         5.01902
   C       -8.51385         4.47368         3.48467
   C       -9.62238         5.01539         2.55466
   C       -9.98116         3.93882         1.52341
   O      -10.46591         2.85579         1.74583
   N       -9.64385         4.42057         0.29058
   C       -9.77941         3.66351        -0.92274
   C       -9.13846         5.70653         0.36673
   C       -8.67817         6.50919        -0.65412
   C       -8.21897         7.79448        -0.33528
   C       -8.27060         8.23677         0.99073
   C       -8.72015         7.41448         2.01330
   C       -9.14618         6.14302         1.69924
   C       -7.66935         8.68594        -1.33687
   C       -7.24532         8.30782        -2.55375
   C       -6.64397         9.15927        -3.54408
   C       -6.09742         8.61937        -4.70691
   C       -6.09329         7.26912        -5.04894
   N       -6.10730         6.15051        -5.31244
   S       -5.38104         9.80473        -5.75068
   C       -5.82008        11.07746        -4.65151
   C       -6.48670        10.56865        -3.52629
   C       -6.92851        11.43924        -2.52097
   N       -7.26607        12.20440        -1.73287
   C       -5.54134        12.43517        -4.88373
   C       -4.82743        12.96749        -5.92617
   C       -4.57338        14.34988        -6.13263
   C       -3.80921        14.62034        -7.22422
   C       -3.40865        13.46760        -7.94006
   S       -4.05946        12.02831        -7.19111
   C       -2.60279        13.39425        -9.06027
   C       -2.00604        14.45950        -9.77362
   C       -1.23909        14.05230       -10.82252
   C       -1.18514        12.64683       -10.98898
   S       -2.16834        11.85988        -9.77743
   C       -0.47912        11.96190       -11.95462
   C       -0.43934        10.57016       -12.03119
   C        0.18776         9.78173       -12.96594
   C        0.77802        10.07287       -14.24608
   C        0.44348        11.09733       -15.09994
   C        1.04582        11.30045       -16.35739
   N        1.51783        11.52858       -17.37910
   C       -0.61191        12.00499       -14.88165
   N       -1.48588        12.74370       -14.78359
   C        1.65223         8.95086       -14.58743
   C        1.44468         7.91074       -13.64672
   C        0.47346         8.36461       -12.63086
   O        0.03239         7.73767       -11.69336
   C        2.09471         6.70379       -13.72392
   C        3.00095         6.51650       -14.77354
   C        3.21178         7.56558       -15.69913
   C        2.54811         8.78507       -15.62532
   S        4.37950         7.12605       -16.90802
   C        4.56233         5.55809       -16.16693
   C        3.79168         5.37237       -15.06921
  Br        5.75558         4.31688       -16.91064
   H      -10.72169        -0.13034        -0.62177
   H       -8.69697        -4.38271         1.08684
   H      -12.66030        -1.80800        -1.75474
   H       -5.34411        -0.10603         2.63844
   H       -4.50589         1.93626         1.11074
   H       -4.56946         4.37399         0.87214
   H       -6.40646         5.68416         1.89356
   H       -7.64786         0.33341         4.51491
   H       -9.08175         0.23047         3.45649
   H       -9.23506         0.93279         5.07953
   H       -8.24893         5.24865         4.20855
   H      -10.49470         5.25904         3.16761
   H      -10.11723         2.66867        -0.64114
   H       -8.81492         3.57966        -1.42518
   H      -10.50464         4.13164        -1.59211
   H       -8.68370         6.16002        -1.67333
   H       -7.93236         9.23580         1.22139
   H       -8.73397         7.76768         3.03333
   H       -7.56580         9.71773        -1.03163
   H       -7.30095         7.26828        -2.84873
   H       -5.92943        13.12815        -4.14740
   H       -4.96605        15.09277        -5.46160
   H       -3.51649        15.60870        -7.52842
   H       -2.15615        15.48686        -9.49523
   H       -0.71073        14.71287       -11.48628
   H        0.09067        12.55769       -12.65225
   H       -0.88494        10.01892       -11.20729
   H        1.91023         5.92722       -12.99836
   H        2.74618         9.55556       -16.35181
   H        3.77969         4.46700       -14.49030
*
