# ORCA input file
# SCF done       -206.933139503226          0.000717535073
! CAM-B3LYP def2-SVP def2/J RIJCOSX Grid4 TightSCF
%maxcore 5000
%tddft
    Mode sTDDFT
    Ethresh 5.0
    maxcore 5000
end

%pal
  nprocs 6
  end
* xyz 0 1
   C       -6.01893        -0.82345         1.44043
   C       -6.68845        -0.21568         2.46872
   C       -6.86909        -0.79011         3.74539
   N       -7.04043        -1.20206         4.80236
   C       -7.30433         1.05214         2.39092
   N       -7.83655         2.06891         2.39593
   C       -5.44274        -2.16003         1.46450
   C       -4.93211        -2.46446         0.17761
   C       -4.32476        -3.66231        -0.11408
   C       -4.22205        -4.60862         0.91009
   C       -4.73482        -4.29612         2.19361
   C       -5.34436        -3.08389         2.48974
   S       -4.49698        -5.60305         3.31193
   C       -3.72427        -6.53972         2.06027
   C       -3.64733        -5.90761         0.86444
  Br       -3.09005        -8.25920         2.45089
   C       -5.14408        -1.32234        -0.72667
   O       -4.72807        -1.20533        -1.85496
   C       -5.83643        -0.28578         0.10232
   C       -6.06338         0.98846        -0.30611
   C       -6.06236         1.38951        -1.67238
   O       -5.74032         2.66619        -2.00110
   C       -6.43717         0.72531        -2.82386
   C       -6.98802        -0.53855        -3.34638
   O       -7.34147        -1.53900        -2.78416
   N       -7.07566        -0.30672        -4.71338
   C       -6.68947         0.96513        -5.13969
   O       -6.68906         1.34070        -6.27818
   C       -6.30976         1.64322        -3.88869
   C       -5.86418         2.83538        -3.34249
   C       -5.52667         4.07165        -3.95714
   C       -4.96487         5.09655        -3.27189
   C       -4.59083         6.31317        -3.91616
   O       -4.89023         6.44941        -5.21049
   C       -4.43716         7.64197        -5.63818
   C       -3.80920         8.32705        -4.58973
   C       -3.91399         7.45573        -3.46904
   C       -3.37660         7.66770        -2.09447
   F       -3.53381         6.60675        -1.29580
   F       -2.05421         7.92734        -2.09403
   F       -3.95899         8.69760        -1.45198
   O       -3.27702         9.52867        -4.79359
   C       -2.87494        10.35243        -3.71003
   C       -4.68505         7.99842        -6.98714
   O       -4.15447         9.10852        -7.53648
   C       -5.46235         7.35414        -7.93214
   C       -6.33504         6.19852        -8.16848
   O       -6.67133         5.30033        -7.44643
   N       -6.73213         6.36590        -9.49604
   C       -6.22591         7.49091       -10.14051
   O       -6.45001         7.80365       -11.27824
   C       -5.39880         8.13697        -9.10720
   C       -4.58063         9.21639        -8.83058
   C       -4.16765        10.31865        -9.62043
   C       -3.29596        11.24422        -9.14667
   C       -2.86421        12.37300        -9.88063
   C       -2.08358        13.38227        -9.40516
   C       -1.62037        13.66641        -8.06238
   C       -2.28283        13.39598        -6.89351
   C       -1.76805        13.67674        -5.61171
   N       -1.39045        13.82799        -4.53787
   C       -3.59968        12.89019        -6.81319
   N       -4.68547        12.54770        -6.67091
   C       -0.41589        14.47941        -8.18678
   C       -0.27820        14.88590        -9.53936
   C       -1.36215        14.28635       -10.34415
   O       -1.59064        14.44298       -11.51978
   C        0.74614        15.69707        -9.96356
   C        1.68310        16.11747        -9.01345
   C        1.54190        15.69806        -7.66797
   C        0.50105        14.88551        -7.23586
   S        2.81564        16.32332        -6.66664
   C        3.51015        17.13179        -8.04695
   C        2.82493        16.94305        -9.20019
  Br        5.07527        18.14183        -7.83575
   H       -3.94658        -3.86291        -1.10396
   H       -5.71270        -2.89069         3.48340
   H       -3.20286        -6.33822        -0.01409
   H       -6.25816         1.77701         0.40908
   H       -7.40709        -1.01019        -5.35867
   H       -5.72557         4.14611        -5.01723
   H       -4.77082         4.99601        -2.21660
   H       -2.63199        11.31534        -4.15538
   H       -1.98827         9.95812        -3.21124
   H       -3.68378        10.48863        -2.99093
   H       -7.34780         5.71160        -9.95859
   H       -4.60461        10.39277       -10.60535
   H       -2.89168        11.08724        -8.15676
   H       -3.10723        12.41390       -10.93645
   H        0.82369        15.99782       -10.99650
   H        0.43630        14.58625        -6.20263
   H        3.11273        17.36673       -10.14492
*
