# ORCA input file
# SCF done       -206.045990827570          0.000613879238
! CAM-B3LYP def2-SVP def2/J RIJCOSX Grid4 TightSCF
%maxcore 5000
%tddft
    Mode sTDDFT
    Ethresh 5.0
    maxcore 5000
end

%pal
  nprocs 6
  end
* xyz 0 1
   C        5.96521        -5.88741        -5.69702
   C        5.06728        -6.24440        -6.66441
   F        4.97608        -7.53445        -7.04014
   C        4.22608        -5.31466        -7.28905
   C        4.30408        -4.00039        -6.91928
   C        5.21113        -3.57753        -5.92698
   C        6.05900        -4.53849        -5.30466
   C        6.98218        -4.13743        -4.30891
   C        7.04919        -2.82042        -3.94726
   C        6.18779        -1.86747        -4.56291
   C        5.29483        -2.22320        -5.53049
   C        6.42859        -0.54129        -3.96105
   O        5.90297         0.51247        -4.25052
   C        7.41585        -0.77340        -2.88047
   C        7.90170        -2.11890        -2.98420
   C        9.06600        -2.62738        -2.45234
   C       10.02462        -1.86733        -1.75535
   N       10.86108        -1.29296        -1.21636
   C        9.49821        -3.95467        -2.63624
   N        9.89195        -5.02983        -2.73078
   C        7.62322         0.22131        -1.94530
   C        8.15105         0.10528        -0.66777
   C        8.34005         1.18639         0.17911
   C        8.81579         1.14895         1.50372
   C        8.89223         2.37805         2.10308
   C        8.48961         3.43441         1.26930
   S        8.01115         2.83415        -0.29668
   C        8.44580         4.79582         1.56819
   C        8.75730         5.43583         2.77613
   C        8.58600         6.79555         2.73426
   C        8.15849         7.29211         1.48891
   S        7.95145         5.96265         0.37116
   C        7.81887         8.62353         1.26380
   C        7.44125         9.30523         0.11914
   S        6.56951        10.80438         0.34778
   C        6.31942        11.06488        -1.35975
   C        6.91274         9.99818        -2.09766
   C        7.59087         9.05355        -1.27704
   C        8.38266         8.06610        -1.87280
   C        8.39230         7.93972        -3.23901
   F        9.15808         7.00212        -3.81198
   C        7.60089         8.77634        -4.03960
   F        7.56812         8.59199        -5.36748
   C        6.87644         9.80087        -3.48366
   C        5.64483        12.21425        -1.74021
   C        5.55404        12.76718        -3.01070
   C        4.79765        13.86746        -3.37606
   C        3.85170        14.59072        -2.65243
   C        3.15078        15.69787        -3.16234
   C        2.25108        16.25234        -2.28925
   C        2.20301        15.60267        -1.04744
   S        3.32334        14.26771        -1.01771
   C        1.41528        15.92900         0.05608
   C        0.47650        16.96920         0.15355
   C       -0.13197        17.04527         1.37758
   C        0.30257        16.06980         2.29437
   S        1.50948        15.04485         1.55760
   C       -0.11747        15.93790         3.60837
   C        0.32288        14.95177         4.47801
   C       -0.00503        14.81791         5.81402
   C        0.13083        13.50263         6.47843
   O        0.70812        12.52522         6.05014
   C       -0.62815        13.62360         7.74082
   C       -0.90639        12.66932         8.67470
   C       -1.69789        13.01058         9.79579
   C       -2.18822        14.34202         9.92327
   C       -2.98625        14.67321        11.03477
   C       -3.27094        13.71384        11.96649
   C       -2.79620        12.40025        11.86118
   C       -2.02003        12.06207        10.78713
   F       -4.03546        14.02856        13.02944
   C       -1.87286        15.31458         8.94404
   C       -1.10102        14.96109         7.87249
   C       -0.60348        15.73877         6.73631
   C       -0.54560        17.11459         6.69038
   C        0.20139        17.84548         5.74659
   N        0.82991        18.49243         5.03467
   C       -1.13400        17.95693         7.65226
   N       -1.61458        18.69650         8.38856
   H        6.59961        -6.63060        -5.23971
   H        3.53704        -5.65454        -8.04590
   H        3.66637        -3.26469        -7.38604
   H        7.60617        -4.88927        -3.85261
   H        4.65673        -1.48165        -5.98733
   H        7.23069         1.19279        -2.23380
   H        8.40234        -0.86702        -0.27000
   H        9.09176         0.22323         1.97583
   H        9.22922         2.53855         3.11117
   H        9.08698         4.89618         3.64491
   H        8.76680         7.45051         3.56812
   H        7.75882         9.21205         2.17348
   H        9.00658         7.41397        -1.28811
   H        6.27960        10.41889        -4.13082
   H        5.19710        12.76526        -0.92360
   H        6.17037        12.34963        -3.79192
   H        4.93177        14.22168        -4.39112
   H        3.32420        16.06362        -4.15900
   H        1.63543        17.10250        -2.51898
   H        0.26753        17.63322        -0.66538
   H       -0.86887        17.78058         1.64633
   H       -0.85699        16.65224         3.94177
   H        0.91858        14.14250         4.06654
   H       -0.53086        11.66341         8.56053
   H       -3.36633        15.67633        11.14978
   H       -3.05284        11.68576        12.62719
   H       -1.64282        11.05566        10.68393
   H       -2.26126        16.31338         9.06484
*
