# ORCA input file
# SCF done       -217.960714212053          0.000578819517
! CAM-B3LYP def2-SVP def2/J RIJCOSX Grid4 TightSCF
%maxcore 5000
%tddft
    Mode sTDDFT
    Ethresh 5.0
    maxcore 5000
end

%pal
  nprocs 6
  end
* xyz 0 1
   C       -2.76171        -2.57545        -5.96480
   C       -3.50768        -2.78863        -7.09539
   C       -3.62778        -4.03642        -7.74310
   N       -3.76141        -5.01943        -8.32035
   C       -4.24428        -1.80106        -7.78197
   N       -4.86083        -1.05233        -8.39676
   C       -2.00129        -3.58932        -5.24512
   C       -1.35341        -2.98224        -4.14074
   C       -0.55487        -3.68415        -3.27107
   C       -0.39548        -5.05550        -3.49407
   C       -1.04726        -5.65509        -4.59928
   C       -1.84868        -4.94367        -5.48276
   S       -0.71040        -7.35684        -4.69325
   C        0.28706        -7.24223        -3.26771
   C        0.36439        -5.99489        -2.74536
  Br        1.13283        -8.77855        -2.60551
   C       -1.66641        -1.54317        -4.11449
   O       -1.14694        -0.70201        -3.41884
   C       -2.62049        -1.32426        -5.24266
   C       -3.14060        -0.11413        -5.58303
   C       -3.17183         1.00947        -4.71776
   O       -3.25153         2.25918        -5.25928
   C       -3.23858         1.13103        -3.34329
   C       -3.35260         0.37850        -2.08172
   O       -3.43271        -0.80152        -1.86796
   N       -3.42246         1.37609        -1.11668
   C       -3.42677         2.68460        -1.60279
   O       -3.50495         3.67486        -0.92572
   C       -3.33091         2.50982        -3.05456
   C       -3.32570         3.18107        -4.26670
   C       -3.36100         4.57142        -4.55621
   C       -3.35758         5.04210        -5.82375
   C       -3.40443         6.43735        -6.17263
   C       -4.05476         7.32445        -5.35335
   S       -4.08000         8.93646        -5.90939
   C       -3.14020         8.47104        -7.29290
   C       -2.84261         7.09939        -7.33360
   C       -1.99639         6.61727        -8.36475
   C       -1.72039         5.14055        -8.43473
   C       -2.89362         4.40258        -9.09043
   C       -1.45964         7.49461        -9.30097
   C       -0.42381         7.05571       -10.30368
   C       -1.02674         6.49179       -11.59222
   C       -1.83411         8.85946        -9.29475
   C       -1.41631         9.95233       -10.14417
   C       -1.92161        11.15124        -9.71495
   S       -2.94233        11.04403        -8.34358
   C       -2.66864         9.32998        -8.27023
   C       -0.60074         9.91514       -11.33563
   C        0.29309        10.89924       -11.59997
   C        1.04934        11.04526       -12.78081
   C        1.90298        12.10412       -12.95061
   C        2.60742        12.52237       -14.10758
   C        3.24180        13.72199       -13.97496
   C        3.09291        14.30448       -12.69549
   S        2.16903        13.26051       -11.65260
   C        3.45436        15.55296       -12.22212
   C        3.94823        16.69529       -12.88191
   C        3.89960        17.82475       -12.11611
   C        3.35824        17.63474       -10.82015
   S        3.03756        15.94705       -10.56777
   C        3.14848        18.61964        -9.86807
   C        2.56207        18.52367        -8.61020
   C        1.78949        17.55216        -7.98931
   C        1.78707        17.53184        -6.50352
   O        2.24613        18.37517        -5.76321
   C        1.15271        16.25082        -6.12387
   C        1.00603        15.68644        -4.89141
   C        0.40710        14.40832        -4.78514
   C       -0.01731        13.73899        -5.96800
   C       -0.58642        12.45655        -5.86051
   C       -0.73395        11.88626        -4.62747
   C       -0.33392        12.53102        -3.45110
   C        0.23005        13.77480        -3.53901
   F       -1.28097        10.65610        -4.53030
   C        0.12992        14.36028        -7.23137
   C        0.69704        15.60107        -7.30515
   C        0.96661        16.47818        -8.44480
   C        0.36811        16.34993        -9.68477
   C        0.42556        17.35337       -10.66825
   N        0.44704        18.16273       -11.48322
   C       -0.42069        15.25186       -10.06368
   N       -1.04605        14.36043       -10.43514
   H       -0.07607        -3.19024        -2.44056
   H       -2.31989        -5.44640        -6.31069
   H        0.93383        -5.74569        -1.86870
   H       -3.57594         0.04648        -6.56042
   H       -3.49536         1.16762        -0.13087
   H       -3.35443         5.22055        -3.69436
   H       -3.35186         4.31147        -6.61531
   H       -4.57689         7.08242        -4.44821
   H       -1.54580         4.75996        -7.42719
   H       -0.82210         4.93360        -9.01227
   H       -3.84091         4.66957        -8.62799
   H       -2.75489         3.32610        -9.01530
   H       -2.96603         4.66521       -10.14268
   H        0.23766         6.30974        -9.86107
   H        0.19937         7.91971       -10.54166
   H       -1.45415         5.50838       -11.42177
   H       -0.25816         6.39677       -12.35667
   H       -1.81681         7.13914       -11.96666
   H       -1.78537        12.10981       -10.18024
   H       -0.75659         9.12217       -12.05130
   H        0.44430        11.66291       -10.84736
   H        0.91974        10.34076       -13.59102
   H        2.59151        11.94165       -15.01332
   H        3.79609        14.20852       -14.75761
   H        4.27767        16.66700       -13.90505
   H        4.18908        18.80178       -12.45953
   H        3.56162        19.58791       -10.12329
   H        2.80855        19.33871        -7.93349
   H        1.34632        16.20200        -4.00582
   H       -0.90879        11.93217        -6.74581
   H       -0.47600        12.03567        -2.50374
   H        0.54979        14.28994        -2.64557
   H       -0.20107        13.82852        -8.10869
*
