# ORCA input file
# SCF done       -185.839271904198          0.000766768279
! CAM-B3LYP def2-SVP def2/J RIJCOSX Grid4 TightSCF
%maxcore 5000
%tddft
    Mode sTDDFT
    Ethresh 5.0
    maxcore 5000
end

%pal
  nprocs 6
  end
* xyz 0 1
   C       -6.79261         0.91916         4.94739
   C       -6.21442        -0.21346         4.42825
   C       -5.81694        -1.32261         5.20152
   N       -5.46941        -2.25528         5.77472
   C       -5.94162        -0.44793         3.06534
   N       -5.68550        -0.72667         1.98064
   C       -7.07908         1.13705         6.36494
   C       -7.68210         2.40860         6.51168
   C       -8.05197         2.92194         7.72964
   C       -7.84349         2.12764         8.86235
   C       -7.25303         0.85221         8.70719
   C       -6.85807         0.34354         7.47469
   S       -7.09546         0.03318        10.23280
   C       -7.82116         1.39555        11.04353
   C       -8.16101         2.41402        10.21867
  Br       -8.06918         1.34583        12.90274
   C       -7.83581         3.03043         5.18090
   O       -8.37097         4.10139         4.95981
   C       -7.23870         2.08785         4.22252
   C       -7.11559         2.32135         2.87165
   C       -7.58144         3.45911         2.19768
   C       -7.36127         3.62180         0.85654
   C       -7.78870         4.71915         0.09510
   O       -8.52600         5.73708         0.61173
   C       -8.76910         6.63248        -0.37220
   C       -8.17122         6.19095        -1.55680
   C       -7.54926         4.96901        -1.26427
   O       -6.85435         4.17975        -2.09871
   O       -8.15342         6.76576        -2.78649
   C       -9.53207         7.80478        -0.16030
   C      -10.13656         8.13848         1.01210
   C      -10.91523         9.30888         1.22190
   C      -11.08896        10.30736         0.31489
   C      -11.87435        11.46664         0.50495
   O      -12.57843        11.71369         1.64308
   C      -12.08429        12.51899        -0.37144
   C      -11.75429        13.03151        -1.70135
   O      -11.06218        12.57620        -2.57788
   N      -12.44873        14.23562        -1.76692
   C      -13.19425        14.55743        -0.62812
   O      -13.85879        15.55412        -0.50059
   C      -12.94892        13.43242         0.27045
   C      -13.23971        12.90225         1.52150
   C      -14.05715        13.40319         2.55102
   C      -14.26187        12.75471         3.73815
   C      -15.07864        13.24006         4.76406
   C      -15.28074        12.57404         5.95280
   C      -16.08586        12.98106         7.04364
   C      -16.09037        12.10733         8.09090
   C      -15.28808        10.96580         7.87830
   S      -14.52617        11.03342         6.30743
   C      -15.06139         9.88822         8.71649
   C      -15.56901         9.63640        10.00993
   C      -15.13123         8.46463        10.54769
   C      -14.25362         7.72710         9.70817
   S      -14.01115         8.59206         8.20425
   C      -13.68435         6.51998        10.02477
   C      -12.81097         5.74478         9.23715
   S      -12.22427         4.20824         9.86488
   C      -11.28611         3.84509         8.47397
   C      -11.39359         4.85524         7.54664
   C      -12.25463         5.91320         7.97922
   O      -12.33295         6.87035         7.03261
   C      -11.53906         6.44363         6.01232
   N      -11.45386         7.27010         4.87175
   O      -10.79618         6.85146         3.93665
   O      -12.04040         8.33309         4.88429
   C      -10.93858         5.23773         6.25340
   H       -8.48706         3.90594         7.80752
   H       -6.40361        -0.63083         7.41348
   H       -8.61838         3.32826        10.55071
   H       -6.61349         1.57670         2.26726
   H       -8.11624         4.22076         2.74453
   H       -6.81054         2.87410         0.30086
   H       -6.84138         4.59075        -2.97383
   H       -8.63426         7.60083        -2.77181
   H       -9.62947         8.44922        -1.02420
   H      -10.04044         7.45947         1.84770
   H      -11.39958         9.40120         2.18449
   H      -10.61062        10.27884        -0.65338
   H      -12.41961        14.83542        -2.57879
   H      -14.53169        14.35191         2.34680
   H      -13.76484        11.80584         3.89748
   H      -15.58286        14.18682         4.62327
   H      -16.63560        13.90547         7.02027
   H      -16.64409        12.25308         9.00119
   H      -16.23672        10.31887        10.50455
   H      -15.40726         8.10037        11.52147
   H      -13.93032         6.10334        10.99241
   H      -10.73847         2.92758         8.41879
   H      -10.24238         4.73807         5.60792
*
