# ORCA input file
# SCF done       -183.749140932091          0.000878082062
! CAM-B3LYP def2-SVP def2/J RIJCOSX Grid4 TightSCF
%maxcore 5000
%tddft
    Mode sTDDFT
    Ethresh 5.0
    maxcore 5000
end

%pal
  nprocs 6
  end
* xyz 0 1
   C       10.54650       -13.45358        15.92325
   C       10.89871       -12.52107        15.02567
   C       11.32972       -11.17762        15.27477
   C       11.61855       -10.46875        14.15792
   C       11.44091       -11.18768        12.94689
   S       10.88869       -12.81271        13.27855
   C       11.65622       -10.72508        11.66229
   C       12.09590        -9.44608        11.26582
   C       12.21014        -9.29833         9.91164
   C       11.86919       -10.44649         9.17360
   S       11.39277       -11.73605        10.25620
   C       11.89549       -10.57710         7.79207
   C       11.56078       -11.72032         7.09681
   C       11.59852       -11.83635         5.71305
   C       11.28393       -12.96730         4.94394
   C       11.42491       -12.78784         3.59185
   C       11.85636       -11.49985         3.23715
   S       12.07881       -10.51760         4.66559
   C       12.10306       -10.99477         1.96724
   C       11.99542       -11.63144         0.72101
   C       12.32633       -10.83999        -0.34390
   C       12.70194        -9.51964        -0.00643
   S       12.65541        -9.34682         1.74468
   C       13.08342        -8.55452        -0.90945
   C       13.40618        -7.19515        -0.74708
   O       13.99337        -6.60038        -1.83001
   C       14.22421        -5.30129        -1.56197
   C       13.79492        -5.01757        -0.25735
   C       13.24955        -6.21983         0.24624
   O       12.64897        -6.29792         1.45373
   C       13.86065        -3.72301         0.42954
   O       14.45990        -2.77394        -0.01967
   O       13.23005        -3.64060         1.59957
   C       14.83865        -4.49826        -2.54641
   S       15.75820        -3.10719        -2.13870
   C       16.43471        -2.97137        -3.73716
   C       15.93307        -3.99241        -4.58336
   C       14.96284        -4.80308        -3.92273
   C       14.21633        -5.76427        -4.64598
   C       12.94344        -6.32120        -4.14420
   O       12.11610        -5.70741        -3.51699
   O       12.72940        -7.58488        -4.54829
   C       14.57844        -6.03562        -5.94901
   C       15.63209        -5.35836        -6.55539
   C       16.29672        -4.33157        -5.91282
   O       17.29917        -3.67111        -6.51461
   C       17.27440        -1.85428        -3.90203
   C       17.79228        -1.29081        -5.03707
   C       18.58634        -0.13693        -4.96517
   C       19.11520         0.52196        -6.05125
   C       19.93077         1.71414        -6.01698
   C       20.43066         2.35020        -4.90584
   C       21.23252         3.50801        -4.95073
   N       21.88983         4.44975        -4.91802
   C       20.24920         1.94179        -3.56908
   N       20.16614         1.68077        -2.45338
   C       20.17356         2.12872        -7.39681
   C       19.56700         1.18975        -8.26493
   C       18.90065         0.14072        -7.46230
   O       18.30710        -0.82303        -7.90705
   C       19.61959         1.30342        -9.63215
   C       20.30099         2.40013       -10.17141
   C       20.90121         3.33436        -9.29640
   C       20.85043         3.21758        -7.91246
   S       21.68674         4.61591       -10.16983
   C       21.20473         3.88640       -11.67823
   C       20.49211         2.74410       -11.53820
  Br       21.68440         4.70479       -13.29717
   H       10.56615       -13.23578        16.97641
   H       10.23621       -14.43787        15.62436
   H       11.40448       -10.80128        16.27933
   H       11.95550        -9.44747        14.15983
   H       12.31614        -8.67111        11.97734
   H       12.53127        -8.39387         9.42567
   H       12.20776        -9.70586         7.22925
   H       11.24969       -12.59489         7.65418
   H       10.96324       -13.88668         5.40130
   H       11.22845       -13.54788         2.85738
   H       11.67924       -12.65528         0.63452
   H       12.30082       -11.16591        -1.36840
   H       13.19894        -8.89383        -1.93134
   H       12.37534        -7.20311         1.65631
   H       12.81911        -4.48562         1.85244
   H       11.84617        -7.86874        -4.26379
   H       14.02436        -6.76998        -6.51192
   H       15.91464        -5.61383        -7.56747
   H       17.41240        -3.95757        -7.43050
   H       17.48562        -1.34506        -2.96597
   H       17.59986        -1.71097        -6.00780
   H       18.77999         0.26385        -3.97814
   H       19.14733         0.57099       -10.26802
   H       21.32273         3.95861        -7.28993
   H       20.11503         2.16712       -12.36278
*
