# ORCA input file
# SCF done       -176.641786079539          0.000215570572
! CAM-B3LYP def2-SVP def2/J RIJCOSX Grid4 TightSCF
%maxcore 5000
%tddft
    Mode sTDDFT
    Ethresh 5.0
    maxcore 5000
end

%pal
  nprocs 6
  end
* xyz 0 1
   C       -0.83427         0.92281        -0.84052
   O       -1.33527        -0.30226        -0.82834
   C       -0.35163        -1.15477        -0.44005
   C        0.80493        -0.43895        -0.19988
   C        0.49026         0.91374        -0.46266
   C        1.40856         2.05717        -0.35092
   O        2.56110         1.98538        -0.01310
   O        0.79645         3.20672        -0.67904
   C        1.60270         4.37474        -0.60524
   C       -0.65631        -2.55335        -0.35834
   C        0.29277        -3.52509         0.03581
   C       -0.04951        -4.92577         0.15993
   N        0.85129        -5.78867         0.66241
   C        2.05097        -5.36319         0.97066
   C        2.41926        -3.99451         0.75479
   N        1.54383        -3.12732         0.31662
   C        3.74674        -3.57186         1.02051
   N        4.82943        -3.27459         1.24565
   C        2.99078        -6.28013         1.50462
   N        3.77447        -7.00150         1.92577
   C       -1.33554        -5.40292        -0.15716
   C       -2.26277        -4.44000        -0.59737
   C       -1.94242        -3.03454        -0.67186
   N       -2.99287        -2.31824        -1.08375
   S       -4.22012        -3.30392        -1.36136
   N       -3.50733        -4.68869        -1.00762
   C       -1.81973        -6.73898         0.05679
   N       -1.20764        -7.92078        -0.24299
   C        0.01241        -8.11253        -0.98916
   C       -0.11364        -7.59864        -2.41972
   C       -2.02751        -9.02375         0.08581
   O       -1.70716       -10.17622        -0.12421
   C       -3.21208        -8.43515         0.66700
   C       -3.06046        -7.03123         0.61928
   C       -4.21929        -6.42739         1.24935
   O       -4.52067        -5.27602         1.48067
   N       -5.02818        -7.52590         1.59251
   C       -6.28642        -7.34257         2.27660
   C       -6.17077        -7.63048         3.77119
   C       -4.44567        -8.72688         1.26191
   C       -5.05567        -9.98013         1.47606
   C       -4.45105       -11.16067         1.15459
   C       -5.05448       -12.42866         1.32285
   C       -6.32051       -12.73808         1.78162
   C       -6.50230       -14.14830         1.75096
   C       -5.23531       -14.71201         1.24316
   C       -4.38815       -13.68159         0.99146
   C       -4.93861       -16.06528         1.04473
   N       -4.66071       -17.16589         0.86863
   C       -7.63421       -14.84923         2.09883
   C       -7.83636       -16.25949         2.04696
   C       -9.12137       -16.54531         2.44790
   C       -9.78375       -15.29430         2.78202
   C       -8.90604       -14.27622         2.58131
   C       -9.17984       -12.92274         2.80023
   N       -9.41486       -11.81253         2.98422
   C       -9.67035       -17.86259         2.50962
   O       -8.82629       -18.87102         2.20453
   C       -9.49505       -20.02541         2.29640
   C      -10.78707       -19.80678         2.65724
   C      -10.92634       -18.40001         2.80372
   C      -12.18564       -17.74955         3.18138
   O      -12.36088       -16.57305         3.39046
   O      -13.17245       -18.65414         3.27569
   C      -14.44574       -18.14296         3.63690
   H       -1.47910         1.73092        -1.12509
   H        1.75179        -0.82018         0.11783
   H        0.97180         5.19950        -0.92569
   H        2.47177         4.27764        -1.25905
   H        1.95039         4.53160         0.41783
   H        0.19232        -9.19104        -0.99049
   H        0.83469        -7.61416        -0.47043
   H       -0.93340        -8.09846        -2.93091
   H        0.80684        -7.79659        -2.96178
   H       -0.30084        -6.52643        -2.43209
   H       -7.04939        -7.97684         1.81730
   H       -6.56113        -6.29511         2.12501
   H       -5.85425        -8.65566         3.94919
   H       -7.13399        -7.47597         4.24889
   H       -5.44484        -6.95989         4.22456
   H       -6.04795        -9.99068         1.90241
   H       -3.45190       -11.14603         0.73919
   H       -7.06992       -12.04461         2.10558
   H       -3.38595       -13.75010         0.61039
   H       -7.10179       -16.97570         1.73656
   H      -10.79616       -15.21750         3.12769
   H       -8.95140       -20.92496         2.08430
   H      -11.55772       -20.53281         2.80741
   H      -15.11576       -18.99779         3.67545
   H      -14.78912       -17.41894         2.89483
   H      -14.39550       -17.64913         4.60966
*
