# ORCA input file
# SCF done       -196.863649124622          0.000514258894
! CAM-B3LYP def2-SVP def2/J RIJCOSX Grid4 TightSCF
%maxcore 5000
%tddft
    Mode sTDDFT
    Ethresh 5.0
    maxcore 5000
end

%pal
  nprocs 6
  end
* xyz 0 1
   C        1.50041        -0.90629         0.71584
   S        2.51168         0.17950         1.56170
   C        2.36774         1.37904         0.29721
   C        1.58966         0.89575        -0.73597
   C        1.08076        -0.40047        -0.47640
   C        0.17153        -1.10787        -1.42692
   C       -0.56038        -0.09966        -2.30662
   F       -1.27285        -0.78931        -3.26284
   C        0.45233         0.81796        -2.99094
   F       -0.20402         1.69370        -3.82872
   C        1.24820         1.64747        -1.98154
   C        3.03686         2.63777         0.42422
   S        3.47615         3.56181        -0.97878
   C        4.26391         4.77493        -0.01910
   C        4.19032         4.45451         1.32853
   C        3.47026         3.27263         1.58057
   C        3.11118         2.86755         2.97567
   N        1.65265         2.56834         3.09721
   O        1.32703         1.89592         4.04188
   O        0.90312         3.06749         2.29702
   C        3.36273         4.02348         3.95503
   C        4.77373         4.55668         3.76076
   C        4.88708         5.23876         2.39168
   N        6.36289         5.35618         2.11417
   O        6.82775         4.71989         1.20391
   O        6.97961         6.05051         2.87664
   C        4.85603         5.93074        -0.56988
   C        5.02919         6.18908        -1.89195
   C        5.67252         7.37712        -2.30901
   N        5.92702         7.71219        -3.61427
   C        5.50949         6.98262        -4.78664
   C        4.02823         7.19583        -5.08825
   C        6.63120         8.92618        -3.72024
   O        6.96591         9.41168        -4.78120
   C        6.81693         9.35431        -2.34997
   C        6.21118         8.39206        -1.51067
   C        6.38814         8.82002        -0.14222
   O        6.01443         8.33423         0.91402
   N        7.10274        10.01581        -0.23787
   C        7.54183        10.71765         0.94433
   C        9.00272        10.41698         1.26989
   C        7.37689        10.35466        -1.54796
   C        8.07915        11.51501        -1.93139
   C        8.33597        11.81592        -3.23835
   C        9.02121        12.96462        -3.68901
   C        9.28678        13.26199        -5.01466
   C        9.98641        14.49348        -5.09300
   C       10.14107        14.96089        -3.70161
   C        9.56587        14.04502        -2.87930
   C       10.75161        16.14516        -3.27652
   N       11.23968        17.11246        -2.89315
   C       10.43641        15.14165        -6.22365
   C       11.14213        16.37610        -6.29374
   C       11.37731        16.68904        -7.61344
   C       10.80739        15.62763        -8.43002
   C       10.25573        14.69144        -7.61496
   C        9.63407        13.51907        -8.05724
   N        9.13619        12.56918        -8.46924
   C       12.03460        17.81948        -8.17511
   S       11.83684        18.14930        -9.88004
   C       12.81428        19.54494        -9.76611
   C       13.28839        19.75288        -8.50201
   C       12.84916        18.77077        -7.58529
   C       13.26564        18.78866        -6.15162
   C       14.47814        19.69200        -5.93027
   F       14.64120        19.87352        -4.57631
   C       14.27577        21.04799        -6.60860
   F       15.34134        21.87441        -6.32292
   C       14.20011        20.87560        -8.12271
   H        1.26876        -1.85732         1.15168
   H       -0.55030        -1.72111        -0.88544
   H        0.74877        -1.77351        -2.07714
   H       -1.29050         0.49164        -1.74085
   H        1.10566         0.21650        -3.63617
   H        0.65059         2.52739        -1.72096
   H        2.15568         2.00710        -2.47082
   H        3.64563         1.97165         3.30824
   H        3.22590         3.66601         4.97612
   H        2.64159         4.82276         3.76563
   H        5.48022         3.72397         3.81365
   H        5.02894         5.26817         4.54554
   H        4.51868         6.26974         2.44046
   H        5.19327         6.67305         0.14017
   H        4.70556         5.47407        -2.63474
   H        5.73081         5.91999        -4.65288
   H        6.11233         7.36859        -5.61331
   H        3.40842         6.86151        -4.25907
   H        3.75070         6.63970        -5.97915
   H        3.83347         8.25100        -5.26333
   H        6.90635        10.36302         1.76054
   H        7.38049        11.79137         0.81390
   H        9.12805         9.35275         1.45341
   H        9.30074        10.96001         2.16246
   H        9.65409        10.70623         0.44791
   H        8.41572        12.17913        -1.14863
   H        7.99701        11.13608        -4.00898
   H        9.00945        12.65319        -5.85274
   H        9.51767        14.11078        -1.80816
   H       11.39996        16.96387        -5.43814
   H       10.84218        15.60169        -9.50372
   H       12.99350        20.14082       -10.63896
   H       13.50025        17.77957        -5.80599
   H       12.44941        19.16491        -5.52547
   H       15.40670        19.23127        -6.29161
   H       13.38618        21.54206        -6.19888
   H       15.21165        20.66574        -8.48646
   H       13.87545        21.80871        -8.58723
*
