# ORCA input file
# SCF done       -219.670557512855          0.000776530927
! CAM-B3LYP def2-SVP def2/J RIJCOSX Grid4 TightSCF
%maxcore 5000
%tddft
    Mode sTDDFT
    Ethresh 5.0
    maxcore 5000
end

%pal
  nprocs 6
  end
* xyz 0 1
   C        4.99522         7.64858         2.35701
   C        4.34750         8.79229         1.97548
   C        4.45755        10.01997         2.66244
   N        4.50570        11.04260         3.18108
   C        3.55393         8.91065         0.81769
   N        2.93465         9.10073        -0.13171
   C        6.00122         7.54144         3.40222
   C        6.76080         6.35247         3.18765
   C        7.79634         6.00676         4.00762
   C        8.12106         6.84427         5.09818
   C        7.35501         8.02457         5.32688
   C        6.28914         8.35955         4.46167
   C        7.68542         8.84567         6.42447
   C        8.72313         8.52104         7.25492
   C        9.47748         7.35997         7.02797
   C        9.18291         6.53991         5.97279
   C        6.22255         5.62987         2.02399
   O        6.63866         4.62528         1.49702
   C        4.98532         6.37859         1.65103
   C        4.02533         5.77650         0.91705
   C        2.66336         6.18397         0.74906
   C        1.77239         6.67417         1.70218
   N        1.93755         6.78425         3.08768
   O        0.98276         7.17971         3.73841
   O        3.01816         6.49363         3.58935
   C        0.52888         7.00410         1.06053
   C        0.67584         6.81605        -0.27503
   C        1.98307         6.28281        -0.53218
   C        2.51344         6.01268        -1.79120
   C        3.41751         5.00201        -2.17639
   C        3.49213         4.97674        -3.54682
   C        2.70613         6.02746        -4.09487
   N        2.64336         6.21582        -5.47621
   O        3.35389         5.50836        -6.17321
   O        1.87911         7.05573        -5.94660
   C        2.11575         6.74070        -3.02630
   C        1.55046         8.00483        -2.90795
   C        1.22013         8.90109        -3.90823
   C        0.70143        10.15621        -3.63591
   S        0.34494        10.74133        -2.01443
   C       -0.24310        12.28404        -2.56990
   C       -0.15064        12.36250        -3.97518
   C        0.36386        11.17002        -4.54694
   N        0.40898        11.31448        -5.88798
   C       -0.06288        12.57167        -6.19908
   C       -0.14371        13.03033        -7.52247
   N       -0.21491        13.41156        -8.60157
   C       -0.41716        13.24570        -5.04476
   C       -0.73256        13.19830        -1.62832
   C       -1.17805        14.45459        -1.92672
   C       -1.70369        15.34164        -0.96806
   S       -1.98959        14.84943         0.67528
   C       -2.59839        16.42049         1.09297
   C       -2.54254        17.29269        -0.00715
   C       -2.05713        16.68267        -1.17559
   C       -1.97141        17.38103        -2.46321
   O       -1.52188        16.86968        -3.47596
   C       -2.51012        18.75729        -2.45844
   C       -2.56490        19.45227        -3.66430
   C       -3.06322        20.74122        -3.71405
   C       -3.50882        21.35676        -2.55357
   C       -3.44981        20.68203        -1.34775
   C       -2.95580        19.38166        -1.28575
   C       -2.89885        18.71961         0.03518
   O       -3.10282        19.33177         1.06751
   C       -3.17781        16.76573         2.33416
   C       -3.22629        16.05394         3.49617
   C       -3.88380        16.49339         4.71808
   C       -4.85007        17.45782         4.81133
   C       -5.45638        17.84369         6.02602
   N       -5.97331        18.20324         6.98543
   C       -5.42984        18.13258         3.71346
   N       -5.99408        18.67195         2.87216
   C       -3.41157        15.64051         5.80092
   C       -2.58864        14.61697         5.24462
   C       -2.49128        14.80646         3.79356
   O       -1.91316        14.08883         2.99842
   C       -2.02545        13.64119         6.01737
   C       -2.26056        13.64769         7.40987
   C       -3.07340        14.67317         7.97609
   C       -3.64471        15.66880         7.15023
   C       -3.29931        14.66881         9.36730
   C       -2.75247        13.69772        10.16193
   C       -1.95399        12.68844         9.60334
   C       -1.71253        12.66370         8.25627
   H        8.36079         5.10361         3.82873
   H        5.71263         9.24824         4.66588
   H        7.10312         9.73942         6.59382
   H        8.96909         9.15720         8.09200
   H       10.29230         7.11833         7.69397
   H        9.75976         5.64433         5.79388
   H        4.32501         4.85194         0.43710
   H       -0.34046         7.34008         1.59158
   H       -0.08631         6.93753        -1.02032
   H        3.88038         4.28805        -1.52474
   H        4.04704         4.28048        -4.14824
   H        1.40396         8.35218        -1.89276
   H        1.35560         8.62474        -4.94511
   H        0.72366        10.62825        -6.55607
   H       -0.80745        14.24270        -5.00842
   H       -0.74515        12.86738        -0.59703
   H       -1.12620        14.82712        -2.93815
   H       -2.20870        18.95676        -4.55532
   H       -3.10344        21.26661        -4.65624
   H       -3.89918        22.36251        -2.58902
   H       -3.78665        21.14317        -0.43125
   H       -3.62045        17.75590         2.33729
   H       -1.41068        12.87357         5.57145
   H       -4.25182        16.43345         7.60845
   H       -3.91621        15.44641         9.79307
   H       -2.93340        13.70208        11.22627
   H       -1.53129        11.93035        10.24526
   H       -1.09917        11.88926         7.82011
*
