# ORCA input file
# SCF done       -244.788093723828          0.000954984500
! CAM-B3LYP def2-SVP def2/J RIJCOSX Grid4 TightSCF
%maxcore 5000
%tddft
    Mode sTDDFT
    Ethresh 5.0
    maxcore 5000
end

%pal
  nprocs 6
  end
* xyz 0 1
   C       -2.15280         2.30735         1.55011
   C       -1.54531         3.44402         2.00641
   C       -1.73227         3.96619         3.30496
   N       -1.86287         4.43924         4.34147
   C       -0.61362         4.18813         1.25669
   N        0.17189         4.80572         0.69055
   C       -2.95411         1.38267         2.33305
   C       -3.04534         0.14295         1.63111
   C       -3.72356        -0.92395         2.14814
   C       -4.35444        -0.79636         3.40564
   C       -4.28175         0.44563         4.10321
   C       -3.57229         1.53280         3.54697
   C       -4.92557         0.56192         5.35252
   C       -5.60505        -0.49673         5.89062
   C       -5.67354        -1.71919         5.20492
   C       -5.06158        -1.86597         3.98947
   C       -2.34995         0.25163         0.34016
   O       -2.16776        -0.59408        -0.49702
   C       -1.97531         1.70436         0.23591
   C       -1.75363         2.24981        -0.97063
   C       -1.69503         3.65943        -1.31180
   C       -0.62752         4.16017        -2.05985
   C        0.57025         3.43419        -2.55238
   O        0.84101         2.27161        -2.43389
   N        1.35711         4.40827        -3.18087
   C        0.78356         5.68835        -3.10755
   O        1.27536         6.68369        -3.56130
   C       -0.49596         5.50945        -2.38098
   C       -1.44027         6.44654        -2.00550
   C       -2.53096         5.95759        -1.29737
   C       -2.66897         4.61123        -0.95304
   C       -3.91928         4.31033        -0.22537
   O       -4.32294         3.25066         0.15736
   S       -4.83650         5.82990         0.03456
   C       -3.62776         6.83479        -0.83609
   O       -3.73588         8.01000        -0.99522
   C        2.58948         4.23665        -3.79385
   C        3.14399         3.05429        -4.10234
   C        4.39452         2.84353        -4.76249
   N        5.45622         3.70426        -4.91110
   C        5.67276         5.00080        -4.31103
   C        5.75339         4.93156        -2.78937
   C        6.50639         3.10794        -5.65498
   O        7.55730         3.66269        -5.89064
   C        6.00453         1.79733        -5.99230
   C        4.72216         1.65948        -5.41352
   C        4.22218         0.34762        -5.76472
   O        3.18407        -0.22188        -5.51620
   N        5.26577        -0.23211        -6.52992
   C        5.08054        -1.54144        -7.10906
   C        4.78263        -1.46428        -8.60444
   C        6.32115         0.63263        -6.68321
   C        7.54536         0.48878        -7.39481
   C        8.05684        -0.59248        -8.02033
   C        9.34831        -0.58674        -8.65734
   C       10.18442        -1.70992        -8.56101
   C        9.90624        -3.02353        -7.94713
   O        8.90299        -3.43242        -7.42371
   N       11.08675        -3.77460        -8.09255
   C       12.09438        -3.05287        -8.75335
   O       13.19198        -3.44958        -9.02046
   C       11.49152        -1.72549        -9.04504
   C       12.05254        -0.62957        -9.67354
   C       11.21067         0.46344        -9.85190
   C        9.89561         0.49208        -9.38943
   C        9.12894         1.65984        -9.87385
   O        7.95204         1.85200        -9.82974
   S       10.25016         2.78980       -10.72172
   C       11.64545         1.68000       -10.57575
   O       12.73300         1.91245       -11.00665
   C       11.15003        -5.07925        -7.64018
   C       12.24096        -5.86696        -7.63275
   C       12.14042        -7.20443        -7.15502
   C       13.17914        -8.07486        -7.04532
   C       13.11319        -9.45494        -6.58804
   C       11.98011       -10.18719        -6.35091
   C       11.98214       -11.53461        -5.93073
   N       11.91129       -12.62828        -5.58928
   C       10.65593        -9.72735        -6.51154
   N        9.55136        -9.43637        -6.63013
   C       14.47920        -9.95144        -6.47695
   C       15.37331        -8.93482        -6.91863
   C       14.60756        -7.73931        -7.31129
   O       15.05674        -6.70058        -7.74180
   C       16.72600        -9.11849        -6.93197
   C       17.25870       -10.35027        -6.49135
   C       16.37177       -11.37119        -6.04206
   C       14.97554       -11.15293        -6.04213
   C       16.91404       -12.59552        -5.60009
   C       18.26632       -12.80310        -5.60154
   C       19.13856       -11.79719        -6.04433
   C       18.64560       -10.59722        -6.48004
   H       -3.77870        -1.85470         1.60346
   H       -3.54579         2.46650         4.08690
   H       -4.86780         1.50391         5.87755
   H       -6.09368        -0.39848         6.84825
   H       -6.21466        -2.54358         5.64434
   H       -5.11209        -2.80440         3.45729
   H       -1.60167         1.55557        -1.79153
   H       -1.34425         7.49520        -2.23698
   H        3.03424         5.18997        -4.04095
   H        2.60598         2.13788        -3.90036
   H        4.90370         5.70583        -4.63643
   H        6.63284         5.34152        -4.71222
   H        4.82742         4.55950        -2.35807
   H        5.94908         5.92300        -2.39090
   H        6.56376         4.27134        -2.48974
   H        4.21963        -1.97247        -6.58867
   H        5.95361        -2.16576        -6.90432
   H        3.84468        -0.93917        -8.76747
   H        4.69415        -2.46727        -9.01241
   H        5.56916        -0.93435        -9.13676
   H        8.12801         1.40120        -7.36781
   H        7.57790        -1.55726        -7.97387
   H       13.06884        -0.62246       -10.03284
   H       10.19309        -5.42716        -7.26572
   H       13.19760        -5.51512        -7.98747
   H       11.15123        -7.52826        -6.85612
   H       17.38139        -8.33102        -7.27344
   H       14.33225       -11.94416        -5.69143
   H       16.23834       -13.36703        -5.26114
   H       18.67197       -13.74409        -5.26138
   H       20.20301       -11.97809        -6.03802
   H       19.31218        -9.81907        -6.82197
*
