# ORCA input file
# SCF done       -233.953132429769          0.000837311600
! CAM-B3LYP def2-SVP def2/J RIJCOSX Grid4 TightSCF
%maxcore 5000
%tddft
    Mode sTDDFT
    Ethresh 5.0
    maxcore 5000
end

%pal
  nprocs 6
  end
* xyz 0 1
   C        1.27580         1.87416        -3.97801
   C        2.06033         1.87520        -5.09722
   F        2.61173         3.01382        -5.53084
   C        2.29934         0.68057        -5.80810
   F        3.07303         0.71251        -6.89880
   C        1.74882        -0.49860        -5.38996
   C        0.93604        -0.53216        -4.24001
   C        0.69421         0.67469        -3.51989
   C       -0.11568         0.66469        -2.36188
   C       -0.66910        -0.51538        -1.93731
   C       -0.41998        -1.71623        -2.66156
   C        0.35995        -1.73752        -3.78286
   C       -1.09551        -2.84271        -1.99689
   O       -1.05596        -4.01160        -2.30843
   C       -1.76099        -2.25655        -0.79782
   C       -1.52935        -0.82180        -0.80006
   C       -2.08607         0.08516         0.05948
   C       -2.98204        -0.24865         1.09881
   N       -3.72777        -0.45823         1.94527
   C       -1.86161         1.47753        -0.00719
   N       -1.71259         2.61497        -0.01671
   C       -2.31643        -3.01853         0.17918
   C       -2.60770        -4.40972         0.04385
   C       -2.46887        -5.36556         1.01577
   C       -2.81202        -6.64595         0.46239
   C       -3.26182        -6.38492        -0.91457
   C       -3.13150        -5.05665        -1.15970
   C       -3.81481        -7.31315        -1.80754
   N       -4.31072        -8.03839        -2.54622
   C       -2.71879        -7.86863         1.07395
   C       -2.98875        -9.14529         0.48669
   C       -2.80172       -10.12402         1.43087
   C       -2.39238        -9.47727         2.67480
   C       -2.31469        -8.13802         2.46681
   C       -1.91999        -7.19665         3.42463
   N       -1.59466        -6.44673         4.23097
   C       -2.95564       -11.53572         1.27978
   C       -2.58075       -12.35162         0.23150
   N       -1.91291       -12.01275        -0.97250
   O       -1.57127       -10.85954        -1.14763
   O       -1.69911       -12.92210        -1.74954
   C       -2.84173       -13.73081         0.57660
   C       -3.33071       -13.78194         1.83707
   C       -3.46353       -12.43542         2.33674
   C       -4.12614       -12.04224         3.47582
   C       -4.85162       -10.81603         3.64494
   C       -5.63535       -10.91571         4.75258
   C       -5.38434       -12.17555         5.38798
   N       -6.00213       -12.54943         6.59905
   O       -5.70537       -13.62316         7.09776
   O       -6.81097       -11.77408         7.07126
   C       -4.43605       -12.88480         4.65424
   C       -3.81035       -14.08709         5.03435
   C       -2.57936       -14.50894         4.61256
   C       -2.01904       -15.76290         4.93339
   C       -0.78998       -16.22405         4.49626
   C       -0.60708       -17.56354         4.93717
   C       -1.82126       -17.90733         5.70823
   C       -2.65100       -16.83468         5.69762
   C       -2.10259       -19.14537         6.29971
   N       -2.34638       -20.16307         6.77322
   C        0.43117       -18.41451         4.64549
   C        0.53867       -19.78411         5.03037
   C        1.58603       -20.36288         4.35452
   C        2.24261       -19.32127         3.57096
   C        1.56336       -18.15805         3.73484
   C        1.87513       -16.93315         3.13281
   N        2.14692       -15.93004         2.64470
   C        2.00152       -21.71946         4.38632
   C        1.27978       -22.81736         4.73383
   C        2.01695       -24.08165         5.05474
   O        3.17743       -24.31001         4.81377
   C        1.04150       -24.93012         5.76069
   C        1.23702       -26.13312         6.37762
   C        0.14810       -26.75540         7.02707
   C       -1.12255       -26.10815         7.03988
   C       -2.20185       -26.72930         7.70005
   C       -2.02995       -27.93893         8.31259
   C       -0.77368       -28.57979         8.29651
   C        0.29349       -28.00116         7.66858
   F       -0.63503       -29.76373         8.90476
   F       -3.05548       -28.52994         8.93561
   C       -1.29600       -24.86510         6.39009
   C       -0.23215       -24.29259         5.74515
   C       -0.13212       -23.05821         4.96972
   C       -1.19737       -22.42544         4.38758
   C       -1.10523       -21.34978         3.48354
   N       -1.10079       -20.48141         2.73229
   C       -2.54014       -22.83207         4.55862
   N       -3.64531       -23.12582         4.64491
   H        1.10285         2.79712        -3.44686
   H        1.94135        -1.40386        -5.94415
   H       -0.27323         1.59174        -1.83461
   H        0.53338        -2.66204        -4.31231
   H       -2.52454        -2.58294         1.14885
   H       -2.09142        -5.20900         2.00779
   H       -3.42641        -4.54510        -2.05538
   H       -3.30463        -9.29014        -0.52640
   H       -2.14673        -9.99642         3.58282
   H       -2.65866       -14.54862        -0.09398
   H       -3.67958       -14.65715         2.34807
   H       -4.87529       -10.01831         2.92913
   H       -6.34011       -10.19503         5.12254
   H       -4.33759       -14.66718         5.78080
   H       -1.96948       -13.86143         3.99563
   H       -0.08759       -15.67235         3.90236
   H       -3.61559       -16.77962         6.16622
   H       -0.09047       -20.26395         5.75266
   H        3.10382       -19.47995         2.94881
   H        3.04350       -21.91305         4.14632
   H        2.20899       -26.60239         6.37082
   H       -3.17010       -26.25406         7.71841
   H        1.24776       -28.50416         7.66600
   H       -2.26242       -24.38884         6.42874
*
