# ORCA input file
# SCF done       -256.518164069607          0.000789236371
! CAM-B3LYP def2-SVP def2/J RIJCOSX Grid4 TightSCF
%maxcore 5000
%tddft
    Mode sTDDFT
    Ethresh 5.0
    maxcore 5000
end

%pal
  nprocs 6
  end
* xyz 0 1
   C       -2.43511         1.20575        -0.15336
   C       -1.27351         1.25147         0.56512
   F       -0.76647         2.42810         0.95107
   C       -0.59494         0.06410         0.90967
   F        0.54068         0.14005         1.61416
   C       -1.08830        -1.15273         0.53064
   C       -2.28383        -1.23300        -0.21016
   C       -2.97097        -0.03349        -0.55925
   C       -4.17307        -0.08986        -1.29962
   C       -4.67596        -1.30780        -1.67890
   C       -3.98014        -2.50156        -1.32826
   C       -2.81581        -2.47683        -0.61420
   C       -4.71028        -3.66483        -1.85537
   O       -4.42613        -4.83866        -1.76043
   C       -5.89637        -3.10583        -2.55603
   C       -5.88329        -1.65782        -2.42021
   C       -6.83657        -0.79222        -2.87470
   C       -8.02849        -1.19491        -3.51691
   N       -9.02873        -1.47073        -4.00602
   C       -6.76853         0.61062        -2.72892
   N       -6.76403         1.75385        -2.63381
   C       -6.73758        -3.91002        -3.24144
   C       -6.52892        -5.34353        -3.30595
   C       -5.96870        -5.94573        -4.40496
   N       -5.53626        -5.22659        -5.52593
   O       -5.03212        -5.83229        -6.44994
   O       -5.70310        -4.01107        -5.49843
   C       -5.79810        -7.36113        -4.16444
   C       -6.28575        -7.62840        -2.93596
   C       -6.80846        -6.41066        -2.34308
   C       -7.42849        -6.24676        -1.12641
   C       -7.67204        -4.98917        -0.47782
   C       -7.90034        -5.20674         0.84270
   C       -7.90089        -6.61933         1.08625
   N       -8.16844        -7.15963         2.35242
   O       -8.24932        -8.37521         2.47323
   O       -8.29826        -6.37731         3.27846
   C       -7.70733        -7.29616        -0.12082
   C       -7.87926        -8.68066        -0.30555
   C       -8.31636        -9.25943        -1.46697
   C       -8.55530       -10.62084        -1.72853
   N       -8.23144       -11.74406        -1.00409
   C       -7.53898       -11.84473         0.26159
   C       -8.49155       -11.75233         1.45050
   C       -8.65445       -12.92003        -1.64868
   O       -8.45833       -14.03466        -1.20722
   C       -9.29017       -12.46547        -2.86973
   C       -9.19804       -11.06628        -2.89491
   C       -9.82232       -10.58667        -4.11334
   O       -9.97005        -9.47335        -4.56373
   N      -10.27444       -11.76364        -4.74778
   C      -10.92972       -11.71923        -6.03418
   C       -9.97898       -12.09377        -7.16764
   C       -9.96551       -12.88761        -4.02951
   C      -10.31764       -14.19509        -4.43177
   C       -9.95593       -15.28067        -3.69492
   C      -10.23538       -16.65054        -3.93158
   S       -9.53809       -17.69694        -2.71904
   C      -10.94847       -17.39231        -4.88079
   C      -11.67485       -16.87894        -6.06526
   O      -11.69798       -15.71080        -6.41898
   C      -12.36386       -17.91784        -6.80879
   C      -13.15573       -17.78574        -7.93130
   N      -13.59120       -19.01161        -8.30100
   C      -14.50115       -19.27964        -9.38685
   C      -15.95005       -19.25478        -8.90483
   C      -13.11199       -19.94158        -7.44225
   C      -12.33738       -19.30638        -6.49603
   C      -11.61697       -19.83952        -5.35978
   O      -11.58971       -21.01312        -5.03675
   C      -10.90917       -18.78522        -4.60178
   C      -10.18225       -19.11272        -3.46778
   C       -9.89910       -20.42110        -2.97198
   C       -9.80068       -20.80361        -1.67754
   C       -9.08088       -22.06404        -1.32063
   O       -8.75183       -22.94702        -2.07293
   C       -8.79929       -21.94351         0.12413
   C       -8.05204       -22.76369         0.92019
   C       -7.88622       -22.43320         2.28353
   C       -8.49485       -21.25015         2.79635
   C       -8.31728       -20.92204         4.15577
   C       -7.57356       -21.73112         4.96799
   C       -6.97320       -22.90158         4.46004
   C       -7.12574       -23.24652         3.14643
   F       -6.24852       -23.67416         5.27882
   F       -7.40645       -21.41906         6.25867
   C       -9.26745       -20.42282         1.95044
   C       -9.42378       -20.76886         0.63426
   C      -10.17548       -20.13518        -0.44382
   C      -11.20497       -19.24914        -0.28303
   C      -12.06505       -18.84279        -1.32534
   N      -12.81211       -18.51382        -2.13209
   C      -11.58193       -18.70643         0.96420
   N      -11.91943       -18.23435         1.95369
   H       -2.94140         2.12370        -0.40812
   H       -0.55758        -2.05186         0.80194
   H       -4.66795         0.83454        -1.55037
   H       -2.30882        -3.39560        -0.36137
   H       -7.56333        -3.50735        -3.81551
   H       -5.33162        -8.03084        -4.86020
   H       -6.25754        -8.57749        -2.44104
   H       -7.62196        -4.03389        -0.95878
   H       -8.07376        -4.47480         1.60892
   H       -7.79077        -9.27188         0.59356
   H       -8.59302        -8.61790        -2.29513
   H       -6.75987       -11.08149         0.30969
   H       -7.06474       -12.83133         0.26420
   H       -9.01573       -10.80086         1.47950
   H       -7.92889       -11.85608         2.37350
   H       -9.22449       -12.55361         1.39727
   H      -11.27129       -10.68862        -6.16342
   H      -11.79554       -12.38569        -6.02531
   H       -9.12051       -11.42636        -7.17376
   H      -10.49541       -12.00391        -8.11876
   H       -9.62954       -13.11746        -7.05811
   H      -10.88883       -14.32284        -5.33782
   H       -9.37273       -15.11050        -2.79596
   H      -13.42051       -16.89889        -8.47225
   H      -14.26326       -20.26092        -9.80529
   H      -14.35020       -18.52303       -10.16071
   H      -16.10521       -20.00289        -8.13144
   H      -16.61977       -19.46573        -9.73336
   H      -16.19750       -18.27847        -8.49548
   H      -13.33342       -20.98507        -7.54723
   H       -9.68506       -21.18277        -3.71617
   H       -7.59272       -23.65222         0.51459
   H       -8.77224       -20.03187         4.56124
   H       -6.65971       -24.14500         2.77328
   H       -9.70798       -19.52788         2.36014
*
