# ORCA input file
# SCF done       -239.168838576385          0.000944710079
! CAM-B3LYP def2-SVP def2/J RIJCOSX Grid4 TightSCF
%maxcore 5000
%tddft
    Mode sTDDFT
    Ethresh 5.0
    maxcore 5000
end

%pal
  nprocs 6
  end
* xyz 0 1
   C       -7.62340         1.68593        -5.89570
   C       -8.52914         1.76013        -6.91693
   F       -8.59999         2.86136        -7.67534
   C       -9.39727         0.68297        -7.18519
   F      -10.27482         0.78243        -8.19253
   C       -9.34820        -0.45378        -6.42764
   C       -8.42637        -0.56019        -5.36839
   C       -7.54638         0.52755        -5.09729
   C       -6.60705         0.44066        -4.04322
   C       -6.55368        -0.69701        -3.28388
   C       -7.44527        -1.77458        -3.55424
   C       -8.35792        -1.72247        -4.56795
   C       -7.19465        -2.86005        -2.59177
   O       -7.75212        -3.94600        -2.55720
   C       -6.16440        -2.36208        -1.67960
   C       -5.69340        -1.08219        -2.16828
   C       -4.57546        -0.41279        -1.74446
   C       -4.16273         0.82985        -2.26817
   N       -3.79423         1.84234        -2.66338
   C       -3.65189        -0.92116        -0.80536
   N       -2.83634        -1.31532        -0.10015
   C       -5.81237        -2.92551        -0.47592
   C       -6.15434        -4.17001         0.05881
   S       -6.97178        -5.43230        -0.80963
   C       -6.75905        -6.56420         0.47260
   C       -6.04236        -6.00363         1.55087
   C       -5.76082        -4.62529         1.34482
   C       -5.16729        -3.88301         2.39437
   C       -5.02879        -2.47602         2.37337
   N       -4.94707        -1.33445         2.45309
   C       -4.76516        -4.53716         3.54907
   C       -4.89168        -5.91725         3.67391
   C       -5.52270        -6.66168         2.69193
   C       -5.50591        -8.06845         2.82745
   N       -5.37985        -9.19907         2.97307
   C       -7.43072        -7.81335         0.49267
   N       -7.71040        -8.59909        -0.59823
   C       -7.29890        -8.39670        -1.96742
   C       -8.39787        -7.74472        -2.80202
   C       -8.44628        -9.74877        -0.23819
   O       -8.79202       -10.60379        -1.02396
   C       -8.63531        -9.60831         1.18669
   C       -8.00720        -8.41776         1.60891
   C       -8.30682        -8.24693         3.01694
   O       -8.03534        -7.36160         3.80231
   N       -9.07005        -9.38116         3.35821
   C       -9.45726        -9.60362         4.72945
   C       -8.52914       -10.60429         5.41355
   C       -9.26945       -10.19952         2.27532
   C      -10.01944       -11.39461         2.12929
   C      -10.72028       -12.12501         3.02704
   C      -11.50385       -13.25543         2.63558
   S      -11.70891       -14.56506         3.74832
   C      -12.55483       -15.50982         2.56737
   C      -12.74679       -14.79466         1.40174
   C      -12.16233       -13.50806         1.44575
   C      -12.39378       -12.48652         0.37265
   N      -12.64556       -11.14216         0.96745
   O      -13.31717       -11.09944         1.96829
   O      -12.21406       -10.18928         0.37253
   C      -13.66023       -12.83172        -0.41926
   C      -13.55935       -14.26313        -0.91952
   C      -13.60642       -15.24871         0.25105
   N      -13.13765       -16.55545        -0.26680
   O      -12.04103       -16.59359        -0.76949
   O      -13.87266       -17.50743        -0.14166
   C      -13.00438       -16.81619         2.98157
   C      -12.75500       -18.04335         2.48486
   C      -13.58526       -19.18703         2.99326
   O      -14.30839       -19.16020         3.95874
   C      -13.35906       -20.28405         2.04121
   C      -13.98920       -21.49388         1.96295
   C      -13.64830       -22.37812         0.91639
   C      -12.66274       -21.98720        -0.03703
   C      -12.34056       -22.86705        -1.09034
   C      -12.96478       -24.07828        -1.19106
   C      -13.93710       -24.46530        -0.24593
   C      -14.27225       -23.63462         0.78612
   F      -14.53262       -25.65824        -0.37031
   F      -12.65877       -24.91278        -2.19203
   C      -12.02155       -20.73369         0.07393
   C      -12.35880       -19.89743         1.10500
   C      -11.87430       -18.56536         1.44805
   C      -10.71577       -18.00498         0.98766
   C      -10.18882       -16.76736         1.41259
   N       -9.70169       -15.77845         1.73009
   C       -9.84817       -18.64151         0.06997
   N       -9.10117       -19.12044        -0.65613
   H       -6.96492         2.51893        -5.70507
   H      -10.01993        -1.26927        -6.64563
   H       -5.95635         1.28044        -3.86020
   H       -9.01878        -2.55477        -4.75685
   H       -5.18187        -2.32384         0.16536
   H       -4.32363        -3.96390         4.35022
   H       -4.50148        -6.41574         4.54774
   H       -7.08348        -9.38936        -2.37498
   H       -6.38584        -7.79758        -1.98521
   H       -9.29714        -8.35379        -2.75947
   H       -8.07243        -7.67254        -3.83575
   H       -8.62905        -6.74520        -2.44282
   H      -10.50092        -9.92599         4.76598
   H       -9.37472        -8.63160         5.22478
   H       -8.54141       -11.56529         4.90463
   H       -8.83475       -10.74659         6.44646
   H       -7.50992       -10.22584         5.39861
   H       -9.98729       -11.74004         1.10448
   H      -10.68821       -11.92444         4.08616
   H      -11.54336       -12.38515        -0.31027
   H      -13.76312       -12.14775        -1.26259
   H      -14.53381       -12.72266         0.22898
   H      -12.61241       -14.39592        -1.44915
   H      -14.37673       -14.47904        -1.60920
   H      -14.63411       -15.41312         0.59680
   H      -13.64219       -16.81545         3.86421
   H      -14.74395       -21.76721         2.68447
   H      -11.59724       -22.58700        -1.82022
   H      -15.01923       -23.94527         1.49966
   H      -11.29377       -20.45475        -0.67070
*
