# ORCA input file
# SCF done       -256.392060610904          0.000911742395
! CAM-B3LYP def2-SVP def2/J RIJCOSX Grid4 TightSCF
%maxcore 5000
%tddft
    Mode sTDDFT
    Ethresh 5.0
    maxcore 5000
end

%pal
  nprocs 6
  end
* xyz 0 1
   C      -15.71428        -0.18042         5.58565
   C      -15.68393         0.29938         6.86482
   F      -16.68507         1.06008         7.32227
   C      -14.60076         0.00180         7.71789
   F      -14.59842         0.48673         8.96513
   C      -13.56263        -0.77111         7.27868
   C      -13.56355        -1.27940         5.96490
   C      -14.65869        -0.97999         5.10160
   C      -14.68121        -1.47836         3.78010
   C      -13.64010        -2.25176         3.33496
   C      -12.55052        -2.54718         4.20492
   C      -12.50164        -2.07744         5.48600
   C      -11.56952        -3.38173         3.49358
   O      -10.43905        -3.65325         3.81943
   C      -12.23393        -3.73668         2.19840
   C      -13.40726        -2.89049         2.04583
   C      -14.12937        -2.70374         0.90030
   C      -13.78794        -3.28107        -0.34192
   N      -13.52349        -3.71127        -1.37254
   C      -15.26464        -1.86943         0.80718
   N      -16.19105        -1.20591         0.67653
   C      -11.81582        -4.74739         1.40904
   C      -10.76828        -5.66821         1.75706
   C      -10.63321        -6.43238         2.89373
   N      -11.45084        -6.45783         4.04563
   O      -11.14682        -7.24055         4.92206
   O      -12.41794        -5.71367         4.10012
   C       -9.51286        -7.33614         2.73641
   C       -8.98376        -7.16046         1.50454
   C       -9.72001        -6.12395         0.82298
   C       -9.45695        -5.54837        -0.39684
   C       -9.86216        -4.23995        -0.80805
   C       -9.19927        -3.91927        -1.95119
   C       -8.37932        -5.02451        -2.35566
   N       -7.62295        -4.92411        -3.54401
   O       -6.69597        -5.69443        -3.73093
   O       -7.93515        -4.03831        -4.31597
   C       -8.55092        -6.07950        -1.45302
   C       -8.22814        -7.44590        -1.49817
   C       -7.31081        -8.08379        -2.29866
   C       -7.08964        -9.47169        -2.25820
   C       -7.67756       -10.43690        -1.44646
   C       -7.13027       -11.70289        -1.75400
   C       -6.14517       -11.47745        -2.83432
   C       -6.12799       -10.15182        -3.11902
   C       -5.36843       -12.45181        -3.47476
   N       -4.72284       -13.22652        -4.02293
   C       -7.44870       -12.91857        -1.17419
   C       -6.91900       -14.19200        -1.47853
   C       -7.55159       -15.15522        -0.69970
   C       -8.51739       -14.46726         0.14992
   C       -8.45644       -13.13708        -0.11225
   C       -9.21221       -12.15013         0.53173
   N       -9.82979       -11.34854         1.07580
   C       -7.27558       -16.53393        -0.75060
   C       -8.00797       -17.48818        -0.09131
   C       -7.79542       -18.88054        -0.06863
   C       -6.65444       -19.66998        -0.22183
   N       -5.33843       -19.33482        -0.61339
   O       -4.45554       -20.08253        -0.23830
   O       -5.15324       -18.34933        -1.30489
   C       -6.94588       -21.01101         0.19876
   C       -8.24032       -21.08918         0.61023
   C       -8.84972       -19.80755         0.42293
   C      -10.19794       -19.54455         0.47856
   C      -10.91788       -18.55274        -0.27151
   C      -12.24277       -18.82165        -0.17655
   C      -12.43505       -19.96500         0.68345
   N      -13.74009       -20.37746         1.02752
   O      -14.63796       -19.58721         0.80722
   O      -13.90774       -21.48454         1.51057
   C      -11.20252       -20.41554         1.12897
   C      -10.84150       -21.34011         2.14843
   C      -11.47255       -22.50446         2.44459
   C      -11.06436       -23.36927         3.49234
   C      -11.40721       -24.68222         3.58852
   C      -11.35031       -25.41696         4.88604
   O      -10.76304       -25.07700         5.88390
   C      -12.21054       -26.60100         4.68454
   C      -12.60585       -27.53722         5.59654
   C      -13.45825       -28.58482         5.18095
   C      -13.88856       -28.64191         3.82268
   C      -14.74151       -29.68773         3.41671
   C      -15.14786       -30.63329         4.31619
   C      -14.72256       -30.57567         5.65944
   C      -13.89496       -29.57378         6.08377
   F      -15.13806       -31.51373         6.51822
   F      -15.95611       -31.62638         3.92947
   C      -13.45988       -27.66206         2.89855
   C      -12.63025       -26.65876         3.32276
   C      -12.01450       -25.55034         2.60256
   C      -11.84104       -25.45825         1.24615
   C      -10.96799       -24.52757         0.64511
   N      -10.21413       -23.82801         0.13453
   C      -12.40873       -26.36113         0.32207
   N      -12.86343       -27.06616        -0.45990
   H      -16.55037         0.05729         4.94661
   H      -12.74199        -0.99024         7.94363
   H      -15.52591        -1.24242         3.15262
   H      -11.66703        -2.31764         6.12658
   H      -12.29939        -4.93647         0.45796
   H       -9.19261        -8.01377         3.50438
   H       -8.09327        -7.62768         1.13329
   H      -10.49399        -3.58514        -0.24196
   H       -9.24597        -2.99451        -2.49543
   H       -8.79663        -8.06185        -0.81498
   H       -6.70274        -7.51178        -2.98482
   H       -8.42229       -10.26707        -0.69495
   H       -5.52223        -9.65885        -3.85625
   H       -6.15510       -14.39027        -2.20470
   H       -9.15588       -14.93303         0.87726
   H       -6.45179       -16.83198        -1.38344
   H       -8.87674       -17.16096         0.46526
   H       -6.22466       -21.80596         0.16244
   H       -8.76412       -21.98740         0.87369
   H      -10.47019       -17.81749        -0.91096
   H      -13.05473       -18.30489        -0.65258
   H       -9.92723       -21.10350         2.68037
   H      -12.33034       -22.80528         1.86133
   H      -10.50570       -22.95037         4.32242
   H      -12.27375       -27.47950         6.62190
   H      -15.07462       -29.74774         2.39240
   H      -13.57895       -29.54416         7.11473
   H      -13.80695       -27.72073         1.87911
*
