# ORCA input file
# SCF done       -174.984660385777          0.000985865177
! CAM-B3LYP def2-SVP def2/J RIJCOSX Grid4 TightSCF
%maxcore 5000
%tddft
    Mode sTDDFT
    Ethresh 5.0
    maxcore 5000
end

%pal
  nprocs 6
  end
* xyz 0 1
   C       13.95290       -10.09895         6.69745
   S       13.50169       -10.28888         5.05198
   C       12.03138        -9.38453         5.29242
   C       11.94804        -8.93890         6.61299
   C       13.04515        -9.37392         7.39821
   C       10.96215        -8.02140         7.16494
   O       10.75723        -7.85998         8.34335
   C       11.14686        -9.29975         4.18629
   C        9.81643        -9.01722         4.24997
   C        8.87957        -9.00037         3.18462
   C        8.88088        -9.55943         1.89570
   N        9.89843       -10.13213         1.12399
   O        9.55191       -10.82806         0.18007
   O       11.07228        -9.90991         1.39032
   C        7.54951        -9.52030         1.37379
   C        6.71845        -8.96271         2.30016
   C        7.49316        -8.58581         3.43221
   C        7.04681        -7.82520         4.51227
   C        7.78772        -6.85033         5.21054
   C        6.94520        -6.18504         6.06866
   C        5.64471        -6.74291         5.99091
   N        4.60849        -6.19948         6.75373
   O        3.44617        -6.53274         6.54150
   O        4.91129        -5.37179         7.60113
   C        5.66843        -7.80831         5.05125
   C        4.79889        -8.85334         4.75582
   C        3.51880        -9.06333         5.24152
   C        2.69047       -10.10619         4.83727
   C        2.83461       -10.92947         3.70629
   C        1.66520       -11.66374         3.51829
   O        1.39908       -12.55619         2.55664
   C        2.42519       -12.84101         1.62676
   C        0.73199       -11.34442         4.55009
   C        1.35812       -10.36852         5.39138
   C        0.83575        -9.76320         6.52145
   C        1.54306        -9.23703         7.62491
   C        0.63183        -8.72302         8.52125
   O        0.95968        -8.22152         9.69849
   C       -0.05967        -7.73332        10.54758
   C       -0.71375        -8.85814         7.94595
   C       -0.59761        -9.50708         6.77885
   C       -0.50145       -11.98259         4.82237
   C       -1.16254       -12.82940         3.99236
   C       -2.43010       -13.44069         4.27408
   C       -3.13929       -13.24280         5.46145
   C       -4.38453       -13.80672         5.68058
   N       -4.96814       -13.42623         6.94396
   O       -4.23298       -13.43267         7.90928
   O       -6.12586       -13.06667         6.96748
   C       -4.98905       -14.66444         4.73701
   C       -4.24194       -14.87614         3.55932
   C       -3.03092       -14.28148         3.32060
   C       -6.20952       -15.42184         4.84665
   C       -7.23872       -15.33753         5.71566
   C       -8.37069       -16.20107         5.67412
   S       -8.53934       -17.49383         4.50726
   C      -10.08102       -17.95196         5.14389
   C      -10.43127       -17.15310         6.22483
   C       -9.46309       -16.16326         6.50242
   C      -11.59329       -17.35746         7.08351
   O      -12.02149       -16.54761         7.86647
   C      -10.81351       -19.00908         4.49772
   C      -12.14077       -19.09693         4.44109
   H       14.86592       -10.53665         7.04992
   H       13.13622        -9.12018         8.43906
   H       10.42410        -7.41887         6.41045
   H       11.58791        -9.53630         3.22753
   H        9.38134        -8.81944         5.22099
   H        7.29408        -9.86722         0.39028
   H        5.68506        -8.71375         2.15075
   H        8.80362        -6.57912         4.99659
   H        7.19528        -5.35290         6.70013
   H        5.20445        -9.60600         4.09317
   H        3.11057        -8.35335         5.94384
   H        3.69111       -10.94082         3.05926
   H        2.02421       -13.60416         0.96244
   H        3.31752       -13.22503         2.12808
   H        2.68751       -11.95308         1.04501
   H        2.59456        -9.31898         7.80620
   H        0.44370        -7.38876        11.44900
   H       -0.77268        -8.52119        10.80556
   H       -0.58899        -6.89600        10.08526
   H       -1.61602        -8.48371         8.39087
   H       -1.38063        -9.69193         6.06911
   H       -0.92391       -11.75892         5.79020
   H       -0.73442       -13.05819         3.02814
   H       -2.73067       -12.62505         6.24649
   H       -4.65797       -15.53420         2.81051
   H       -2.51783       -14.46855         2.38889
   H       -6.30276       -16.17834         4.07297
   H       -7.28879       -14.58245         6.48558
   H       -9.57649       -15.45924         7.30742
   H      -12.04930       -18.36213         6.99121
   H      -10.20283       -19.74313         3.98672
   H      -12.78537       -18.34482         4.86210
   H      -12.62136       -19.91705         3.93685
*
