# ORCA input file
# SCF done       -184.085969391873          0.000725644002
! CAM-B3LYP def2-SVP def2/J RIJCOSX Grid4 TightSCF
%maxcore 5000
%tddft
    Mode sTDDFT
    Ethresh 5.0
    maxcore 5000
end

%pal
  nprocs 6
  end
* xyz 0 1
   C        0.81736         1.45941        -5.18917
   C        1.91315         1.76379        -4.39408
   C        2.07349         1.18686        -3.14324
   C        1.13392         0.29687        -2.64345
   C        0.03448        -0.00851        -3.42643
   C       -0.12333         0.56375        -4.70766
   C       -1.33587         0.02536        -5.31489
   C       -1.87501         0.43150        -6.51041
   C       -1.33277         1.45597        -7.31267
   N       -0.95034         2.28066        -8.01468
   C       -3.05589        -0.06789        -7.09513
   N       -4.00715        -0.41945        -7.63573
   C       -1.83242        -1.00746        -4.42204
   C       -1.10542        -0.87736        -3.17000
   C       -1.54301        -1.23925        -1.92086
   C       -2.78327        -1.85202        -1.65565
   N       -3.79745        -2.30999        -1.37065
   C       -0.85277        -0.93926        -0.72879
   N       -0.34463        -0.71643         0.27617
   C       -2.76580        -1.95617        -4.78051
   C       -2.96835        -3.21124        -4.19485
   C       -2.12921        -3.94484        -3.35817
   C       -2.66452        -5.16812        -3.00708
   C       -3.94874        -5.40476        -3.58633
   S       -4.44741        -4.10859        -4.57876
   C       -4.41637        -6.64239        -3.14062
   C       -3.44081        -7.20084        -2.27160
   C       -2.31586        -6.28561        -2.16584
   C       -1.19170        -6.44433        -1.39872
   C       -0.97421        -7.57127        -0.58631
   N       -0.77254        -8.48341         0.08372
   C       -0.17480        -5.46786        -1.38508
   N        0.64586        -4.66646        -1.40643
   C       -3.79414        -8.41953        -1.74820
   C       -5.05878        -8.85165        -2.18118
   S       -5.77993        -7.67796        -3.29591
   C       -5.75667       -10.00474        -1.83799
   C       -5.37117       -10.95370        -0.89901
   C       -6.06966       -12.12224        -0.54256
   C       -5.46968       -12.86520         0.44794
   C       -4.27442       -12.30932         0.91436
   S       -3.92218       -10.83118         0.06792
   C       -3.37328       -12.71525         1.90434
   C       -3.37421       -13.83063         2.74723
   C       -2.30377       -13.85456         3.61011
   C       -1.42374       -12.76641         3.47735
   S       -1.99358       -11.70081         2.22443
   C       -0.28869       -12.55136         4.25789
   C        0.64617       -11.53123         4.20121
   C        1.63186       -11.43778         5.18761
   C        2.51465       -10.38264         5.28760
   C        2.62743        -9.38975         4.31587
   C        1.88658        -9.62823         3.00793
   C        0.57835       -10.43865         3.15730
   N       -0.58031        -9.62660         3.46595
   C       -0.59351        -8.43314         3.07228
   C        0.56056        -7.81015         2.39907
   N        1.69109        -8.35758         2.34960
   F        0.40803        -6.59443         1.88523
   F       -1.64983        -7.67029         3.33189
   C        3.41895        -8.25302         4.40425
   C        4.15849        -7.75218         5.46865
   C        4.91873        -6.56609         5.39814
   C        5.55308        -6.22401         6.55897
   C        5.32322        -7.12719         7.61485
   S        4.27703        -8.42513         7.07678
   C        5.80974        -7.07010         8.90797
   C        6.65804        -6.07447         9.46052
   C        6.97216        -6.27111        10.76276
   C        6.38992        -7.44709        11.33825
   S        5.42243        -8.27748        10.10857
   C        6.51678        -7.89879        12.59493
   H        0.71576         1.91179        -6.16172
   H        2.65460         2.45668        -4.76207
   H        2.94154         1.42918        -2.54924
   H        1.27326        -0.15634        -1.67552
   H       -3.37330        -1.75288        -5.65202
   H       -1.15297        -3.60397        -3.06361
   H       -3.16111        -8.98349        -1.09304
   H       -6.70584       -10.17174        -2.32967
   H       -6.99658       -12.39128        -1.01772
   H       -5.87078       -13.78243         0.84054
   H       -4.14373       -14.58087         2.71362
   H       -2.13526       -14.63149         4.33518
   H       -0.13576       -13.28977         5.03690
   H        1.65352       -12.19986         5.95345
   H        3.14878       -10.33127         6.15856
   H        2.56847       -10.19698         2.36017
   H        0.36485       -10.89652         2.17984
   H        3.45286        -7.63786         3.51354
   H        4.97368        -5.99337         4.48937
   H        6.16831        -5.35041         6.67459
   H        7.00576        -5.24428         8.87215
   H        7.59956        -5.62432        11.34949
   H        7.11320        -7.36331        13.31229
   H        6.03190        -8.79934        12.92430
*
