# ORCA input file
# SCF done       -186.403051144456          0.000393770057
! CAM-B3LYP def2-SVP def2/J RIJCOSX Grid4 TightSCF
%maxcore 5000
%tddft
    Mode sTDDFT
    Ethresh 5.0
    maxcore 5000
end

%pal
  nprocs 6
  end
* xyz 0 1
   C       -4.18447         3.64024         2.93449
   C       -4.18777         4.52530         1.86633
   C       -4.80635         4.20006         0.66785
   C       -5.45083         2.98256         0.50570
   C       -5.45729         2.09356         1.56706
   C       -4.81612         2.41597         2.78389
   C       -4.94991         1.28901         3.69869
   C       -4.56005         1.27734         5.01283
   C       -3.97336         2.37762         5.67302
   N       -3.49210         3.22798         6.27575
   C       -4.71583         0.20163         5.91141
   N       -4.80934        -0.62616         6.70255
   C       -5.55985         0.20278         2.94244
   C       -6.05948         0.77532         1.70052
   C       -7.10400         0.31083         0.94439
   C       -7.85261        -0.84400         1.24508
   N       -8.51926        -1.75370         1.46179
   C       -7.63134         0.99152        -0.17319
   N       -8.11029         1.49784        -1.08483
   C       -5.54301        -1.10861         3.34683
   C       -5.69512        -2.26617         2.56517
   C       -5.57940        -2.44378         1.18998
   C       -5.73506        -3.76700         0.81338
   C       -5.96983        -4.63106         1.91130
   S       -5.97674        -3.80066         3.39546
   C       -6.12217        -5.94179         1.41833
   C       -5.98951        -5.91967         0.01565
   C       -5.74981        -4.54805        -0.40769
   C       -5.59032        -4.08499        -1.68232
   C       -5.63526        -4.93817        -2.80348
   N       -5.66757        -5.63568        -3.71322
   C       -5.36613        -2.71732        -1.94288
   N       -5.17514        -1.60314        -2.13724
   C       -6.10324        -7.17760        -0.56019
   C       -6.31122        -8.17810         0.38366
   S       -6.38812        -7.52414         2.01258
   C       -6.42195        -9.55982         0.09443
   C       -6.50361       -10.67158         0.92973
   C       -6.59626       -10.63678         2.42154
   C       -8.03977       -10.40433         2.87355
   C       -6.52990       -11.87141         0.21747
   C       -6.47900       -11.72989        -1.15709
   S       -6.40176       -10.04639        -1.58417
   C       -6.47050       -12.70990        -2.18037
   C       -6.36604       -14.04537        -1.95936
   C       -6.34409       -15.06652        -2.95049
   C       -6.58812       -14.88005        -4.29322
   C       -6.55631       -15.87979        -5.26111
   C       -6.11707       -17.24181        -4.91654
   C       -5.85712       -17.66365        -3.65997
   S       -5.97839       -16.65527        -2.28061
   C       -6.05581       -17.94714        -6.14798
   C       -6.44731       -17.10443        -7.18865
   C       -6.41565       -17.75589        -8.44191
   C       -6.00682       -19.04542        -8.32192
   S       -5.65092       -19.52473        -6.69509
   C       -6.79841       -15.81646        -6.65108
   C       -7.32431       -14.78383        -7.46324
   C       -8.00557       -13.67885        -7.05823
   C       -8.54081       -12.70525        -7.93679
   C       -8.48494       -12.63397        -9.32134
   C       -9.16353       -11.52491        -9.81856
   C       -9.74045       -10.73267        -8.81471
   S       -9.44731       -11.35857        -7.25436
   C      -10.40669        -9.63918        -9.43236
   C      -10.25030        -9.74476       -10.82155
   C       -9.46877       -10.92735       -11.11570
   C       -9.09700       -11.40088       -12.34104
   C       -9.44878       -10.74720       -13.53999
   N       -9.73197       -10.22232       -14.51955
   C       -8.34057       -12.58127       -12.48855
   N       -7.72974       -13.54484       -12.60911
   C      -10.88843        -8.69750       -11.51476
   C      -11.50244        -7.83705       -10.65780
   S      -11.32480        -8.27065        -8.98747
   H       -3.69154         3.90784         3.85443
   H       -3.69452         5.47958         1.97137
   H       -4.78541         4.90122        -0.15231
   H       -5.91878         2.73494        -0.43317
   H       -5.31402        -1.29917         4.38696
   H       -5.34234        -1.64321         0.51287
   H       -6.03032        -7.38438        -1.61288
   H       -5.95319        -9.85344         2.82691
   H       -6.24841       -11.59368         2.81503
   H       -8.41633        -9.45746         2.49474
   H       -8.09427       -10.38764         3.95864
   H       -8.68165       -11.20098         2.50431
   H       -6.59173       -12.82895         0.70258
   H       -6.52083       -12.32629        -3.18941
   H       -6.26174       -14.39349        -0.94065
   H       -6.79829       -13.87024        -4.60913
   H       -5.56306       -18.67717        -3.43747
   H       -6.67518       -17.30330        -9.38159
   H       -5.88687       -19.77168        -9.10186
   H       -7.20898       -14.94656        -8.52659
   H       -8.21521       -13.52138        -6.01083
   H       -7.97646       -13.35890        -9.92889
   H      -10.89582        -8.58326       -12.58332
   H      -12.06103        -6.95501       -10.89892
*
