# ORCA input file
# SCF done       -254.280506285085          0.000914532609
! CAM-B3LYP def2-SVP def2/J RIJCOSX Grid4 TightSCF
%maxcore 5000
%tddft
    Mode sTDDFT
    Ethresh 5.0
    maxcore 5000
end

%pal
  nprocs 6
  end
* xyz 0 1
   C       -1.78094         6.02621        11.04117
   C       -1.65101         4.70243        11.37398
   C       -0.60807         4.18917        12.17343
   N        0.21666         3.71333        12.81450
   C       -2.55318         3.68035        11.01022
   N       -3.25377         2.80160        10.77344
   C       -0.92429         7.10604        11.51256
   C       -1.48592         8.33948        11.10231
   C       -0.91320         9.55185        11.40139
   C        0.27499         9.54631        12.13917
   C        0.83320         8.30820        12.54003
   C        0.25153         7.08274        12.23969
   S        2.30625         8.53100        13.43336
   C        2.15456        10.25962        13.26030
   C        1.05762        10.65218        12.56956
  Br        3.45897        11.38133        14.00573
   C       -2.71922         8.09222        10.33095
   O       -3.42703         8.93863         9.82937
   C       -2.84461         6.61614        10.24669
   C       -3.67422         5.90482         9.42426
   C       -4.79848         6.33212         8.69009
   C       -5.60274         7.46010         8.79611
   C       -6.65872         7.43615         7.89532
   C       -6.66423         6.28394         7.07644
   S       -5.39238         5.22130         7.44608
   C       -7.75915         6.37148         6.18517
   C       -8.45761         7.56413         6.44389
   C       -7.79308         8.26905         7.53160
   C       -8.17382         9.45053         8.09467
   C       -7.49108        10.04031         9.18129
   N       -6.97022        10.53265        10.07541
   C       -9.30420        10.16076         7.63589
   N      -10.22219        10.73516         7.25897
   C       -9.56623         7.73312         5.61665
   C       -9.70964         6.68436         4.72449
   S       -8.45931         5.46640         4.91507
   C      -10.71508         6.51883         3.73879
   C      -10.79574         5.52615         2.77918
   C      -11.92424         5.67083         1.97383
   C      -12.71414         6.77788         2.33042
   S      -12.06026         7.64788         3.64558
   C      -13.83820         6.82954         1.46568
   C      -13.74986         5.76068         0.55709
   C      -12.54557         4.99853         0.84360
   C      -12.09484         3.89074         0.18821
   C      -10.90289         3.23386         0.56085
   N       -9.93272         2.70363         0.86408
   C      -12.79212         3.33407        -0.90494
   N      -13.35515         2.88367        -1.79657
   C      -14.81831         5.71694        -0.33700
   C      -15.72183         6.73941        -0.11147
   S      -15.24056         7.77206         1.22199
   C      -16.93171         6.97370        -0.82238
   C      -17.34372         6.33833        -1.96279
   C      -18.61365         6.75461        -2.41880
   C      -19.32901         6.28593        -3.54181
   C      -18.83876         5.22018        -4.39041
   C      -18.97116         5.10109        -5.74592
   C      -18.41582         3.90499        -6.24700
   C      -17.86835         3.09281        -5.29521
   S      -18.03145         3.81934        -3.73532
   C      -17.21339         1.77201        -5.46144
  Cl      -18.43192         3.51714        -7.92389
   C      -20.55617         6.89493        -3.79004
   C      -21.10435         7.90221        -2.95387
   C      -20.40374         8.34182        -1.80773
   C      -19.15907         7.77198        -1.59173
   S      -18.09937         8.14922        -0.26286
   C      -20.99938         9.30692        -0.90921
   C      -22.29571         9.34651        -0.47952
   C      -22.55823        10.44540         0.36553
   C      -21.47755        11.24888         0.59377
   S      -20.09131        10.63566        -0.24362
   C      -21.39187        12.47707         1.42174
  Cl      -24.12486        10.73445         1.02412
   C      -22.35938         8.34474        -3.41088
   C      -22.80418         7.69079        -4.53479
   S      -21.63221         6.51726        -5.10092
   C      -23.98749         7.90971        -5.27768
   C      -25.13937         8.51993        -4.88196
   C      -26.09351         9.01002        -5.91670
   O      -26.08033         8.75276        -7.09493
   C      -27.02180         9.91228        -5.19215
   C      -26.72405         9.87454        -3.81803
   C      -27.41333        10.68922        -2.93511
   C      -28.42523        11.51150        -3.42440
   C      -28.73262        11.52371        -4.79523
   C      -28.02070        10.71960        -5.69148
   C      -29.78366        12.32542        -5.31004
   N      -30.63456        12.90556        -5.81017
   C      -29.16641        12.45185        -2.51573
   O      -29.55906        13.51910        -2.88984
   O      -29.35089        12.03868        -1.25714
   C      -25.67032         8.88606        -3.58775
   C      -25.47455         8.24334        -2.39309
   C      -24.62787         7.13013        -2.21840
   N      -23.97101         6.21048        -2.01950
   C      -26.20198         8.56307        -1.22769
   N      -26.79934         8.79986        -0.27672
   H       -1.36851        10.47421        11.07655
   H        0.71763         6.16708        12.56308
   H        0.80940        11.67862        12.37008
   H       -3.43661         4.85652         9.28258
   H       -5.40951         8.24793         9.50007
   H      -10.24079         8.56997         5.64387
   H      -10.06035         4.74750         2.68309
   H      -14.94835         4.97540        -1.10266
   H      -16.74279         5.60575        -2.46595
   H      -19.40682         5.85005        -6.38050
   H      -16.99651         1.59997        -6.51290
   H      -17.86534         0.97350        -5.10563
   H      -16.28756         1.72840        -4.89060
   H      -23.02067         8.58575        -0.70187
   H      -22.38316        12.75099         1.77364
   H      -20.97698        13.30212         0.84465
   H      -20.74511        12.31308         2.28348
   H      -22.88776         9.16909        -2.96716
   H      -23.96027         7.61316        -6.32157
   H      -27.13965        10.72437        -1.89096
   H      -28.24735        10.73264        -6.74668
   H      -29.01578        11.15007        -1.07154
*
