# ORCA input file
# SCF done       -213.463605429744          0.000967333233
! CAM-B3LYP def2-SVP def2/J RIJCOSX Grid4 TightSCF
%maxcore 5000
%tddft
    Mode sTDDFT
    Ethresh 5.0
    maxcore 5000
end

%pal
  nprocs 6
  end
* xyz 0 1
   C       -0.16390        -0.74100        -0.27552
   C       -1.27159        -0.96211         0.49988
   C       -1.69736        -0.09641         1.53081
   N       -2.09161         0.56999         2.37689
   C       -2.17412        -2.02554         0.30237
   N       -2.94921        -2.86122         0.16453
   C        0.63608         0.48302        -0.25170
   C        1.34029         0.59178        -1.46499
   C        2.14836         1.67679        -1.73813
   C        2.26752         2.66939        -0.77299
   C        1.58473         2.55805         0.44477
   C        0.76257         1.46834         0.71225
  Cl        1.75930         3.78163         1.63434
  Cl        3.26177         4.03497        -1.07565
   C        1.07650        -0.60099        -2.29592
   O        1.46499        -0.83321        -3.41573
   C        0.26223        -1.50249        -1.43145
   C        0.13102        -2.80825        -1.80017
   C       -0.25175        -3.91883        -1.01987
   C       -0.27366        -4.05215         0.36191
   C       -0.70138        -5.30990         0.76178
   C       -1.00161        -6.16039        -0.32342
   S       -0.73481        -5.40951        -1.82549
   C       -1.46365        -7.39515         0.19419
   C       -1.46504        -7.32351         1.59924
   C       -0.99019        -6.00849         2.00124
   C       -0.87689        -5.51248         3.26638
   C       -1.19998        -6.28082         4.40455
   N       -1.45709        -6.91543         5.32386
   C       -0.42948        -4.19433         3.49883
   N       -0.06021        -3.12204         3.66707
   C       -1.92868        -8.48985         2.20275
   C       -2.27603        -9.45126         1.26885
   S       -2.02454        -8.90347        -0.38050
   C       -2.80092       -10.74329         1.52195
   C       -3.11918       -11.72361         0.59872
   C       -3.64092       -12.86300         1.20911
   C       -3.72165       -12.74544         2.60807
   S       -3.14738       -11.24070         3.17232
   C       -4.28603       -13.93565         3.13035
   C       -4.56020       -14.80877         2.06247
   C       -4.15642       -14.16701         0.82067
   C       -4.24293       -14.67915        -0.43978
   C       -4.76538       -15.96622        -0.68943
   N       -5.19055       -17.01205        -0.88816
   C       -3.81300       -13.95502        -1.57228
   N       -3.46193       -13.36441        -2.48986
   C       -5.14351       -16.00491         2.47661
   C       -5.31787       -16.04638         3.84880
   S       -4.74159       -14.58593         4.64074
   C       -5.90544       -17.08237         4.61667
   C       -6.10212       -17.10060         5.98752
   C       -6.74202       -18.26467         6.40539
   C       -7.03095       -19.14168         5.34414
   S       -6.51114       -18.53190         3.83329
   C       -7.69432       -20.27779         5.86272
   C       -7.83315       -20.11704         7.26137
   C       -7.21959       -18.85720         7.64707
   C       -7.09291       -18.33991         8.90156
   C       -7.54339       -19.00999        10.06057
   N       -7.87613       -19.54263        11.01922
   C       -6.47073       -17.09320         9.12939
   N       -5.96552       -16.07983         9.30925
   C       -8.51522       -21.16256         7.86632
   C       -8.90121       -22.13578         6.95182
   S       -8.37415       -21.73169         5.30906
   C       -9.57252       -23.36471         7.09979
   C      -10.28536       -23.86569         8.15565
   C      -10.85336       -25.20378         8.19090
   C      -10.55354       -26.24832         7.35673
   C      -11.13534       -27.53094         7.45721
   N      -11.57347       -28.59134         7.47750
   C       -9.60891       -26.21934         6.30802
   N       -8.84454       -26.28463         5.45346
   C      -11.75318       -25.27357         9.33837
   C      -11.69314       -24.05452        10.03383
   C      -10.76338       -23.13060         9.35177
   O      -10.50996       -21.99726         9.69542
   C      -12.43371       -23.82721        11.17577
   C      -13.26013       -24.84418        11.63691
   C      -13.33124       -26.06111        10.94764
   C      -12.58078       -26.28519         9.79856
  Cl      -14.36312       -27.30634        11.52266
  Cl      -14.19724       -24.60519        13.05422
   H        2.67303         1.75022        -2.67754
   H        0.25661         1.40871         1.66217
   H        0.42652        -3.02055        -2.82340
   H        0.05215        -3.27626         1.03010
   H       -2.01651        -8.64723         3.26288
   H       -2.97484       -11.59616        -0.45918
   H       -5.43754       -16.81025         1.82757
   H       -5.79438       -16.29540         6.63020
   H       -8.74039       -21.22964         8.91465
   H       -9.52334       -23.98800         6.21430
   H      -12.36758       -22.88367        11.69415
   H      -12.66545       -27.23347         9.29395
*
