# ORCA input file
# SCF done       -187.406150525385          0.000784661949
! CAM-B3LYP def2-SVP def2/J RIJCOSX Grid4 TightSCF
%maxcore 5000
%tddft
    Mode sTDDFT
    Ethresh 5.0
    maxcore 5000
end

%pal
  nprocs 6
  end
* xyz 0 1
   C       -7.83296        16.04458         2.53862
   C       -7.00344        16.39804         1.52006
   C       -6.04497        15.39701         1.26511
   C       -6.18551        14.29377         2.12003
   S       -7.47814        14.48839         3.22004
   C       -5.18626        13.33958         1.79639
   C       -4.41638        13.84220         0.73769
   C       -4.93400        15.15721         0.37086
   C       -4.45698        15.98031        -0.61057
   C       -3.35381        15.62711        -1.41296
   N       -2.45555        15.34060        -2.06642
   C       -5.03397        17.23721        -0.88130
   N       -5.49911        18.26141        -1.10583
   C       -3.40087        12.97583         0.34040
   C       -3.38412        11.81003         1.08788
   S       -4.65814        11.79524         2.30587
   C       -2.49179        10.70940         0.96398
   C       -2.55672         9.60120         1.77730
   C       -1.71037         8.50092         1.69684
   C       -0.64032         8.44101         0.69943
   C       -0.38607         9.41592        -0.19961
   S       -1.28709        10.87277        -0.31133
   C        0.00995         7.19645         0.92297
   C       -0.59354         6.51832         1.98396
   C        0.03442         5.27309         2.22002
   C        1.07130         5.05849         1.36884
   S        1.33004         6.33871         0.23937
   C       -1.67840         7.32976         2.48991
   C       -2.55076         7.07001         3.56245
   C       -2.41108         6.02622         4.43450
   C       -3.20665         5.67214         5.53544
   C       -4.47849         6.07120         6.01305
   C       -4.83560         5.41992         7.23254
   C       -6.06644         5.70479         7.84490
   C       -6.92390         6.59624         7.25738
   C       -6.59092         7.21412         6.04329
   C       -5.39483         6.95886         5.42509
   C       -3.85877         4.50957         7.69311
   S       -2.51893         4.47470         6.59054
   C       -3.84582         3.71537         8.84975
   C       -2.78363         2.89932         9.11997
   C       -2.51621         2.09105        10.24019
   C       -1.29905         1.42633        10.27537
   C       -0.80035         0.70723        11.34250
   C       -1.64977         0.38633        12.49126
   C       -2.89351         0.89176        12.66188
   S       -3.64807         1.99306        11.57604
   C       -0.88130        -0.51601        13.28123
   C        0.36550        -0.72784        12.68839
   C        1.17428        -1.60147        13.44707
   C        0.53521        -2.02550        14.56868
   S       -1.06154        -1.38211        14.75515
   C        0.46200         0.06431        11.48989
   C        1.57951         0.19627        10.65238
   C        1.72650         1.24023         9.76656
   C        2.68441         1.33759         8.75744
   C        2.63226         2.32351         7.78485
   C        3.59979         2.58493         6.74850
   C        4.76527         1.89530         6.50291
   C        5.65410         2.20058         5.45482
   N        6.41552         2.39236         4.61565
   C        5.23284         0.79085         7.23967
   N        5.68446        -0.11200         7.78983
   C        3.14346         3.74949         5.98667
   C        1.89496         4.17014         6.52253
   C        1.50972         3.26375         7.61750
   O        0.43778         3.28645         8.20393
   C        1.23423         5.26855         6.05787
   C        1.81299         6.02915         5.01684
   C        3.04705         5.60050         4.45133
   C        3.70090         4.44665         4.94904
   C        3.61146         6.36236         3.40935
   C        3.00402         7.50691         2.96728
   C        1.80089         7.93896         3.54190
   C        1.21262         7.20939         4.53924
   H       -8.64980        16.60506         2.94701
   H       -7.07847        17.32640         0.98395
   H       -2.70021        13.17030        -0.45156
   H       -3.33226         9.60732         2.53233
   H        0.41287         9.34886        -0.92078
   H       -0.24654         4.55197         2.96506
   H        1.71875         4.20451         1.33087
   H       -3.34690         7.78330         3.71152
   H       -1.53637         5.40265         4.31528
   H       -6.33025         5.21440         8.76917
   H       -7.87269         6.81986         7.72127
   H       -7.29391         7.89615         5.58901
   H       -5.17112         7.42341         4.47932
   H       -4.68720         3.77502         9.52602
   H       -1.97451         2.90484         8.39929
   H       -0.71119         1.50938         9.37558
   H       -3.50448         0.65367        13.51813
   H        2.17092        -1.90342        13.18125
   H        0.90435        -2.69220        15.32331
   H        2.35205        -0.56072        10.71778
   H        1.04110         2.06597         9.84914
   H        3.47325         0.59798         8.72029
   H        0.29146         5.56670         6.49323
   H        4.63964         4.15854         4.50330
   H        4.54195         6.03101         2.97182
   H        3.45053         8.08650         2.17290
   H        1.33866         8.84933         3.18864
   H        0.27988         7.53172         4.97954
*
