# ORCA input file
# SCF done       -173.745926640377          0.000719478999
! CAM-B3LYP def2-SVP def2/J RIJCOSX Grid4 TightSCF
%maxcore 5000
%tddft
    Mode sTDDFT
    Ethresh 5.0
    maxcore 5000
end

%pal
  nprocs 6
  end
* xyz 0 1
   C       -0.39341         7.30891         1.76103
   C       -0.98405         7.62638         0.56878
   C       -2.16101         8.39811         0.46127
   N       -3.12569         9.00339         0.31892
   C       -0.46757         7.29277        -0.70103
   N       -0.09272         7.09168        -1.76708
   C       -0.78183         7.84148         3.06248
   C        0.30612         7.67285         3.96885
   C        0.24322         8.11778         5.25819
   C       -0.93455         8.75209         5.71210
   C       -2.03404         8.90521         4.81805
   C       -1.93836         8.44135         3.48630
   C       -3.20820         9.52962         5.28693
   C       -3.29251         9.98497         6.57438
   C       -2.20833         9.83645         7.45280
   C       -1.05454         9.23360         7.03081
   C        1.40212         6.95920         3.29200
   O        2.48701         6.66480         3.73304
   C        0.85684         6.59052         1.94770
   C        1.48381         5.64170         1.22246
   C        0.98822         4.90793         0.09422
   C       -0.28660         4.48095        -0.18132
   O       -0.32100         3.78514        -1.32183
   C        0.92102         3.74471        -1.81213
   C        1.79329         4.39298        -0.98085
   C        3.23296         4.65444        -1.12608
   O        3.75859         5.64585        -0.65343
   C        4.01819         3.65199        -1.83273
   C        3.74857         2.34304        -2.16713
   C        4.82997         1.69149        -2.75551
   C        5.94871         2.49693        -2.87244
   S        5.64941         4.08345        -2.23376
   C        7.21205         2.13777        -3.40439
   S        7.52978         0.53496        -4.00906
   C        9.19687         0.86334        -4.41681
   C        9.48935         2.19046        -4.09446
   C        8.36884         2.88600        -3.52697
   N        8.74848         4.15507        -3.23207
   C       10.06896         4.28214        -3.58892
   N       10.73061         5.51186        -3.39175
   O       10.06727         6.41365        -2.90971
   O       11.89831         5.58756        -3.71200
   C       10.56309         3.11210        -4.11705
   C        9.98870        -0.19414        -4.96237
   C        9.48584        -1.48741        -5.03494
   C       10.21782        -2.55551        -5.54688
   F        9.60405        -3.75288        -5.52084
   C       11.51493        -2.45970        -6.02285
   C       12.05932        -1.15389        -5.96638
   C       11.31300        -0.02771        -5.45786
   N       12.01581         1.09744        -5.54100
   S       13.45385         0.78685        -6.18277
   N       13.26957        -0.79122        -6.39269
   C       12.28420        -3.59166        -6.53717
   C       13.65606        -3.67991        -6.28383
   C       14.37216        -4.74997        -6.76273
   C       13.74422        -5.75642        -7.49730
   C       12.37329        -5.68613        -7.78050
   C       11.67273        -4.59425        -7.28901
   C       11.62210        -6.72616        -8.58659
   O       11.36205        -7.89257        -7.85406
   N       14.58001        -6.83312        -7.94647
   O       15.77681        -6.64078        -7.97670
   O       14.05627        -7.88623        -8.26458
   H        1.08336         7.98727         5.92404
   H       -2.78947         8.56277         2.83445
   H       -4.03875         9.64545         4.60606
   H       -4.19532        10.46343         6.92338
   H       -2.29238        10.20170         8.46538
   H       -0.21649         9.11619         7.70222
   H        2.48058         5.37594         1.55956
   H       -1.20215         4.57612         0.36932
   H        1.05753         3.27647        -2.76683
   H        2.80766         1.86607        -1.96409
   H        4.81685         0.66723        -3.08326
   H        8.20402         4.89813        -2.82097
   H       11.55542         2.94710        -4.47839
   H        8.49126        -1.70099        -4.67375
   H       14.14668        -2.91335        -5.70792
   H       15.43093        -4.83907        -6.57155
   H       10.62022        -4.52533        -7.51416
   H       12.17817        -6.95714        -9.50663
   H       10.64530        -6.32145        -8.86291
   H       12.19482        -8.38389        -7.78274
*
