# ORCA input file
# SCF done       -178.827822280483          0.000653577142
! CAM-B3LYP def2-SVP def2/J RIJCOSX Grid4 TightSCF
%maxcore 5000
%tddft
    Mode sTDDFT
    Ethresh 5.0
    maxcore 5000
end

%pal
  nprocs 6
  end
* xyz 0 1
   C        0.49905        -2.85801        -1.98397
   S        1.73657        -2.58827        -0.81433
   C        1.82989        -4.27647        -0.32930
   C        0.91198        -4.98645        -1.08239
   C        0.17471        -4.17894        -2.00067
   O       -0.67892        -4.99619        -2.66490
   C       -0.42628        -6.21956        -2.13407
   N        0.47625        -6.27981        -1.22231
   C        2.71686        -4.74921         0.65872
   C        3.58219        -3.96082         1.34901
   C        4.46355        -4.47594         2.33016
   N        4.38402        -5.73320         2.75881
   C        5.28245        -5.84524         3.75044
   C        5.97372        -4.56808         3.99093
   C        6.96124        -4.70244         5.07298
   O        7.69625        -3.85824         5.53751
   C        6.82743        -6.12343         5.44703
   C        5.79296        -6.77994         4.62295
   N        5.68083        -8.08963         4.94871
   C        6.56712        -8.28319         5.89753
   C        7.32280        -7.10189         6.25013
   C        5.49252        -3.69183         3.05696
   C        5.92224        -2.34869         2.82638
   C        5.94335        -1.74221         1.62325
   C        6.48124        -0.42656         1.36926
   C        6.92979        -0.12376         0.10077
   C        7.57322         1.10208        -0.15125
   C        8.18338         1.59725        -1.30055
   C        8.26068         0.88346        -2.60737
   C        7.86545         1.76709        -3.81658
   N        6.63939         2.51876        -3.66205
   C        9.65513         0.25676        -2.84295
   N       10.70300         1.26156        -2.85401
   C        8.72646         2.88899        -0.95698
   C        9.45421         3.77907        -1.66245
   C       10.00098         5.00601        -1.02446
   C        9.47051         5.29913         0.34369
   C        8.74689         4.39896         1.03864
   C        8.38284         3.16713         0.44846
   C        7.70074         2.06570         0.93058
   C        7.17881         1.75444         2.20689
   C        6.60045         0.54451         2.41705
   C       11.48836         4.78828        -0.83041
   C       11.98474         3.72805        -0.17636
   C       13.38425         3.54691         0.03995
   N       14.28295         4.39747        -0.42876
   C       15.48084         3.93202        -0.01563
   C       15.33550         2.70466         0.77575
   C       16.64841         2.22040         1.21831
   O       16.90985         1.24769         1.89703
   C       17.57290         3.21302         0.63638
   C       16.81818         4.24066        -0.10478
   N       17.65904         5.15560        -0.64737
   C       18.86087         4.76396        -0.29671
   C       18.88022         3.55751         0.50305
   C       13.98739         2.43219         0.81011
   C       13.26536         1.37226         1.41305
   C       13.83775         0.41940         2.19496
   C       13.08778        -0.62614         2.77855
   S       13.78929        -1.76983         3.91017
   C       12.30863        -2.65201         4.16385
   C       11.31804        -2.08277         3.38137
   C       11.75570        -0.96372         2.62911
   O       10.69870        -0.51873         1.90261
   C        9.69667        -1.37713         2.23985
   N        9.99113        -2.29628         3.08266
   C       12.23532        -3.75693         5.06853
   C       11.08760        -4.36114         5.38282
   H        0.11033        -2.04359        -2.55955
   H       -0.99050        -7.05201        -2.50575
   H        2.69829        -5.81202         0.85750
   H        3.59773        -2.89531         1.16432
   H        6.68003        -9.25639         6.34326
   H        8.09308        -7.05293         6.99430
   H        6.35805        -1.86229         3.68882
   H        5.64310        -2.29725         0.74332
   H        6.83046        -0.85610        -0.68910
   H        7.55090         0.04803        -2.56617
   H        7.74559         1.11563        -4.68702
   H        8.67071         2.46740        -4.03548
   H        5.86200         1.89525        -3.47035
   H        6.71573         3.16410        -2.88259
   H        9.64029        -0.22819        -3.82250
   H        9.81409        -0.52265        -2.07950
   H       10.94872         1.52894        -1.90729
   H       11.53888         0.90078        -3.29804
   H        9.75975         3.59137        -2.67970
   H        9.85837         5.86582        -1.68668
   H        9.76322         6.24226         0.77726
   H        8.41619         4.61524         2.04425
   H        7.25399         2.47897         3.00428
   H        6.19980         0.29861         3.38787
   H       12.17076         5.53770        -1.20146
   H       11.31778         2.97927         0.22903
   H       19.72580         5.32634        -0.60331
   H       19.75854         3.07638         0.88585
   H       12.19751         1.33164         1.24444
   H       14.89951         0.44434         2.39838
   H        8.74003        -1.22989         1.78116
   H       13.17629        -4.07291         5.49906
   H       10.14749        -4.02845         4.97682
   H       11.06534        -5.18953         6.06865
*
