# ORCA input file
# SCF done       -173.060086349613          0.000991028009
! CAM-B3LYP def2-SVP def2/J RIJCOSX Grid4 TightSCF
%maxcore 5000
%tddft
    Mode sTDDFT
    Ethresh 5.0
    maxcore 5000
end

%pal
  nprocs 6
  end
* xyz 0 1
   C        2.43196        -0.17879        -7.08989
   C        1.98237        -1.44968        -7.06682
   S        0.31890        -1.58720        -6.59525
   C        0.21295         0.13229        -6.40979
   C        1.43269         0.76732        -6.71385
   C        1.53613         2.15827        -6.63135
   C        0.45099         2.93320        -6.25905
   C       -0.77210         2.29480        -5.92106
   C       -0.87654         0.89536        -6.00917
   S       -2.45064         0.33108        -5.54144
   C       -2.94218         1.95049        -5.19479
   C       -1.97865         2.86882        -5.42791
   C        0.56718         4.37176        -6.23170
   C       -0.45964         5.31893        -6.66449
   N       -0.12622         6.57319        -6.53346
   C        1.12883         6.55958        -6.00825
   C        1.61880         5.17868        -5.86546
   C        2.92975         5.18658        -5.25860
   S        3.85115         3.87295        -4.87822
   C        3.21002         6.57770        -5.01751
   C        2.08126         7.39767        -5.48731
   N        2.28103         8.71206        -5.19343
   C        3.40619         8.75135        -4.53630
   C        4.05577         7.45469        -4.36317
   C        5.28938         7.22509        -3.66626
   C        6.09068         6.15303        -4.01015
   C        7.26871         5.89936        -3.29304
   C        8.20869         4.88042        -3.42130
   C        8.18339         3.80053        -4.44695
   C        9.47954         3.81535        -5.27693
   N        9.83086         5.19224        -5.57735
   C        7.92435         2.42972        -3.80113
   N        6.77814         2.52388        -2.91479
   C        9.18869         5.08773        -2.38293
   C       10.28747         4.39378        -2.03139
   C       11.14814         4.80898        -0.89404
   C       10.68632         6.03973        -0.17316
   C        9.59288         6.73161        -0.54475
   C        8.80546         6.29269        -1.63311
   C        7.63680         6.77607        -2.19415
   C        6.81885         7.88565        -1.88749
   C        5.68541         8.10168        -2.60607
   C       12.57568         5.06767        -1.30829
   C       12.97303         5.32432        -2.55942
   C       14.32813         5.63081        -2.90795
   C       15.43225         5.92296        -1.99009
   N       16.56259         6.20578        -2.57354
   C       16.30910         6.12763        -3.91051
   C       14.90265         5.76518        -4.15097
   C       14.66211         5.65678        -5.56762
   S       13.27121         5.17771        -6.30450
   C       15.92299         5.99657        -6.17726
   C       16.91925         6.27914        -5.12763
   N       18.12251         6.59888        -5.67999
   C       17.94992         6.50004        -6.96761
   C       16.60009         6.10086        -7.37083
   C       16.13739         5.95436        -8.72097
   C       14.84996         6.23355        -9.09233
   S       14.55188         6.07943       -10.77200
   C       16.19910         5.58110       -11.03850
   C       16.94009         5.54686        -9.84549
   C       18.26753         5.08790        -9.87190
   C       18.85600         4.73125       -11.05724
   C       18.13628         4.80512       -12.25941
   C       16.79259         5.22264       -12.24071
   S       16.09088         5.20368       -13.82783
   C       17.58762         4.64922       -14.49905
   C       18.56201         4.48218       -13.58056
   H        3.43462         0.10200        -7.35707
   H        2.51862        -2.34813        -7.30230
   H        2.47038         2.63122        -6.88885
   H       -3.93524         2.11816        -4.82662
   H       -2.10706         3.91834        -5.23368
   H       -1.39648         5.04924        -7.12000
   H        3.80894         9.69572        -4.21299
   H        5.80737         5.52099        -4.83611
   H        7.34652         4.00684        -5.12228
   H        9.33902         3.18379        -6.17114
   H       10.30250         3.38578        -4.70218
   H        9.14347         5.60696        -6.19791
   H       10.73311         5.23444        -6.03900
   H        8.78414         2.13117        -3.19408
   H        7.80546         1.68446        -4.60751
   H        5.96622         2.86266        -3.42196
   H        6.54521         1.61130        -2.53901
   H       10.59698         3.50055        -2.55279
   H       11.16869         3.97310        -0.17523
   H       11.29555         6.35996         0.65841
   H        9.29648         7.61979        -0.00551
   H        7.09345         8.54711        -1.07890
   H        5.04158         8.93367        -2.36356
   H       13.28471         5.08810        -0.49266
   H       12.26405         5.30455        -3.37733
   H       15.36751         5.94053        -0.91647
   H       18.74723         6.76287        -7.64016
   H       14.05392         6.55930        -8.45186
   H       18.81624         4.99557        -8.94820
   H       19.87626         4.38004       -11.07853
   H       17.64042         4.48147       -15.55692
   H       19.55570         4.14416       -13.81359
*
