# ORCA input file
# SCF done       -195.484148725972          0.000660945242
! CAM-B3LYP def2-SVP def2/J RIJCOSX Grid4 TightSCF
%maxcore 5000
%tddft
    Mode sTDDFT
    Ethresh 5.0
    maxcore 5000
end

%pal
  nprocs 6
  end
* xyz 0 1
   C        2.63832        -5.42154         2.75616
   C        1.37657        -5.91448         2.80254
   C        0.13987        -5.17607         3.17069
   F        0.39462        -3.89153         3.45269
   F       -0.78122        -5.17753         2.19034
   F       -0.47454        -5.68938         4.25247
   S        1.29946        -7.58923         2.34907
   C        3.01207        -7.59585         2.06009
   O        3.49462        -8.78281         1.67048
   C        4.81635        -9.16977         2.01101
   C        3.60714        -6.37064         2.31722
   C        4.99360        -6.04716         2.10241
   C        5.59806        -4.93709         2.57635
   C        6.95898        -4.59829         2.34272
   C        7.96286        -5.31634         1.54995
   N        9.13462        -4.74892         1.52038
   C        9.01366        -3.62209         2.28393
   C        7.65469        -3.50749         2.81792
   C        7.52598        -2.30915         3.60399
   S        6.13711        -1.77857         4.31510
   C        8.83729        -1.70407         3.56017
   C        9.72361        -2.53400         2.72240
   N       10.96026        -1.97036         2.61695
   C       10.89038        -0.86073         3.29302
   C        9.59302        -0.60754         3.92431
   C        9.29614         0.53408         4.74455
   C       10.02611         1.70189         4.61201
   C        9.70983         2.81937         5.40066
   C       10.27572         4.09502         5.45554
   C       11.43426         4.57843         4.65203
   C       11.15797         5.92234         3.93448
   N       11.51044         7.07693         4.74398
   C       12.69474         4.64538         5.53763
   N       13.81289         5.19830         4.78868
   C        9.55040         4.82738         6.46184
   C        9.68927         6.09155         6.91415
   C        8.83069         6.60834         8.00859
   C        7.71919         5.69673         8.42906
   C        7.60531         4.43242         7.97476
   C        8.50785         3.94623         7.00296
   C        8.61908         2.72713         6.35655
   C        7.90352         1.51816         6.48446
   C        8.23729         0.45902         5.70210
   C        9.65126         6.75800         9.27013
   C        9.47703         7.76076        10.13840
   C       10.13703         7.87500        11.40064
   C       11.22239         7.05559        11.94198
   N       11.59485         7.37913        13.14872
   C       10.79173         8.42038        13.51220
   C        9.87479         8.76896        12.41244
   C        9.01515         9.85309        12.80229
   S        7.91938        10.65886        11.88344
   C        9.37979        10.10801        14.17762
   C       10.50397         9.23391        14.57695
   N       10.85692         9.47567        15.86796
   C       10.04152        10.40458        16.28633
   C        9.06961        10.84278        15.28568
   C        8.03219        11.83359        15.49673
   C        6.69254        11.60706        15.31980
   C        5.96141        10.35068        15.01623
   F        6.75161         9.27293        14.92705
   F        5.05330        10.05961        15.97561
   F        5.25927        10.40550        13.87076
   S        5.73744        13.01201        15.66067
   C        7.17087        13.92031        16.03528
   O        7.11055        15.20386        16.39506
   C        5.83853        15.81264        16.40440
   C        8.32208        13.17109        15.91360
   C        9.67962        13.64075        16.11910
   C       10.03283        14.82527        16.60349
   H        2.87243        -4.39968         2.99140
   H        4.78119       -10.24869         2.16454
   H        5.15659        -8.67856         2.92405
   H        5.50414        -8.95323         1.19009
   H        5.56681        -6.73595         1.50176
   H        5.05345        -4.23732         3.19424
   H        7.80240        -6.23752         1.01751
   H       11.75988        -0.23310         3.38389
   H       10.81515         1.76942         3.87790
   H       11.62451         3.83921         3.86618
   H       10.09025         5.97948         3.70166
   H       11.70968         5.90664         2.98235
   H       11.25168         7.92703         4.25449
   H       12.51889         7.08251         4.86970
   H       12.88714         3.63207         5.92891
   H       12.50293         5.30200         6.38881
   H       14.04715         4.59337         4.00762
   H       14.63350         5.26349         5.38134
   H       10.43927         6.75191         6.49450
   H        8.43300         7.59279         7.73598
   H        7.03994         6.09220         9.16817
   H        6.81058         3.78947         8.32381
   H        7.10161         1.44239         7.20305
   H        7.70381        -0.47213         5.79498
   H       10.32574         5.94086         9.47966
   H        8.76789         8.54995         9.92151
   H       11.71441         6.24932        11.42641
   H       10.09588        10.77506        17.29514
   H        5.17203        15.31601        17.11717
   H        5.38215        15.78135        15.41046
   H        5.99845        16.84559        16.70591
   H       10.44284        12.92577        15.83748
   H        9.30840        15.56201        16.89823
   H       11.07027        15.08703        16.71959
*
