# ORCA input file
# SCF done       -157.484161489952          0.000736902758
! CAM-B3LYP def2-SVP def2/J RIJCOSX Grid4 TightSCF
%maxcore 5000
%tddft
    Mode sTDDFT
    Ethresh 5.0
    maxcore 5000
end

%pal
  nprocs 6
  end
* xyz 0 1
   C       -3.70012        -5.71985         3.73717
   S       -4.03569        -7.18937         2.88723
   C       -2.51532        -7.09448         2.05789
   O       -2.14176        -8.03044         1.17676
   C       -1.78707        -5.97747         2.42645
   C       -2.50150        -5.20784         3.39787
   C       -0.50012        -5.59138         1.93358
   C        0.21444        -6.24689         0.99006
   C        1.48119        -5.82365         0.51177
   C        2.28468        -4.67857         0.96155
   N        3.40622        -4.51959         0.32264
   C        3.44859        -5.53231        -0.59603
   C        2.25512        -6.37603        -0.48836
   C        2.29898        -7.42206        -1.47276
   S        1.13035        -8.55729        -1.72844
   C        3.54313        -7.20967        -2.17851
   C        4.21843        -6.02463        -1.61578
   N        5.37408        -5.75784        -2.28870
   C        5.44007        -6.65535        -3.22709
   C        4.32990        -7.61415        -3.23712
   C        4.22235        -8.70736        -4.16374
   C        4.85957        -8.64511        -5.38822
   C        4.75245        -9.71914        -6.28659
   C        5.28882        -9.89641        -7.56039
   C        6.11051        -8.91288        -8.31883
   C        7.47132        -9.49153        -8.75384
   N        8.46657        -8.43660        -8.73713
   C        5.31813        -8.36391        -9.52128
   N        4.21572        -7.55710        -9.03567
   C        4.86034       -11.19685        -8.01346
   C        5.10738       -11.88092        -9.14885
   C        4.48737       -13.20587        -9.41170
   C        3.71450       -13.77519        -8.26743
   C        3.49184       -13.09247        -7.12793
   C        4.03275       -11.79722        -6.95492
   C        3.97689       -10.89130        -5.91189
   C        3.33975       -10.92710        -4.65130
   C        3.46232        -9.86822        -3.81043
   C        3.54364       -13.02913       -10.58883
   C        2.48751       -12.20887       -10.54126
   C        1.55899       -12.01186       -11.61037
   C        0.40160       -11.12539       -11.49035
   N       -0.34987       -11.06402       -12.55248
   C        0.24175       -11.89529       -13.45531
   C        1.45527       -12.51095       -12.89321
   C        2.05307       -13.37615       -13.88415
   S        3.43827       -14.26030       -13.74070
   C        1.18861       -13.28269       -15.02880
   C        0.08091       -12.36291       -14.73390
   N       -0.76323       -12.25277       -15.80044
   C       -0.26183       -13.02659       -16.71595
   C        0.96986       -13.71810       -16.32321
   C        1.68141       -14.60377       -17.16346
   S        1.09960       -14.93697       -18.78999
   C        2.43225       -16.00148       -19.07560
   O        2.59183       -16.64433       -20.24021
   C        3.28280       -16.10232       -17.98655
   C        2.83628       -15.30271       -16.91671
   C        4.46560       -16.93971       -18.00718
   C        5.31713       -17.07910       -16.99782
   H       -4.42600        -5.34416         4.42934
   H       -2.81475        -8.71445         1.07350
   H       -2.10868        -4.29789         3.81406
   H       -0.10352        -4.68620         2.37336
   H       -0.18231        -7.14492         0.54066
   H        2.02035        -4.00058         1.75418
   H        6.28422        -6.67578        -3.89407
   H        5.41247        -7.76480        -5.67679
   H        6.32551        -8.06390        -7.66491
   H        7.37109        -9.98089        -9.73723
   H        7.78738       -10.24992        -8.03172
   H        8.23914        -7.71852        -9.41607
   H        9.38483        -8.80156        -8.96125
   H        4.99984        -9.20473       -10.16230
   H        5.96438        -7.71055       -10.11486
   H        3.58122        -8.12347        -8.48223
   H        3.69359        -7.15508        -9.80547
   H        5.72264       -11.48064        -9.94148
   H        5.26646       -13.91404        -9.71884
   H        3.30203       -14.76034        -8.42182
   H        2.91077       -13.52759        -6.32796
   H        2.76573       -11.79584        -4.36551
   H        2.98769        -9.88654        -2.84316
   H        3.75191       -13.60216       -11.48016
   H        2.28499       -11.64248        -9.63913
   H        0.15547       -10.55668       -10.60968
   H       -0.73864       -13.12972       -17.67611
   H        1.88516       -16.43123       -20.86113
   H        3.34715       -15.23173       -15.97398
   H        4.62220       -17.46941       -18.93702
   H        5.19019       -16.56610       -16.06029
   H        6.17858       -17.71852       -17.08059
*
