# ORCA input file
# SCF done       -201.088457842333          0.000930451336
! CAM-B3LYP def2-SVP def2/J RIJCOSX Grid4 TightSCF
%maxcore 5000
%tddft
    Mode sTDDFT
    Ethresh 5.0
    maxcore 5000
end

%pal
  nprocs 6
  end
* xyz 0 1
   C       -3.44550         6.62619        -2.86767
   C       -2.51151         5.99731        -3.64024
   C       -2.13223         6.44549        -4.92347
   N       -1.80051         6.77533        -5.97092
   C       -1.91166         4.76698        -3.29385
   N       -1.47672         3.72273        -3.10006
   C       -4.28897         7.74256        -3.27722
   C       -5.43391         7.79126        -2.42510
   C       -6.41850         8.72305        -2.59988
   C       -6.29529         9.66822        -3.64175
   C       -5.14494         9.63575        -4.48422
   C       -4.14458         8.65687        -4.28569
   C       -5.03041        10.59193        -5.51364
   C       -6.00410        11.53421        -5.70514
   C       -7.13645        11.56460        -4.87681
   C       -7.27946        10.65138        -3.86780
   C       -5.32763         6.74156        -1.40314
   O       -6.12366         6.42210        -0.55233
   C       -3.95476         6.16539        -1.58820
   C       -3.37071         5.49950        -0.56404
   C       -1.98402         5.21486        -0.40632
   N       -1.05753         5.85208        -1.10129
   C        0.12713         5.37893        -0.65992
   C       -0.05862         4.37077         0.39142
   C        1.24624         3.85632         0.84124
   O        1.48077         3.02180         1.68743
   C        2.19903         4.60947         0.00162
   C        1.46873         5.53160        -0.89852
   N        2.33500         6.23046        -1.67364
   C        3.52297         5.80868        -1.32316
   C        3.51109         4.79366        -0.28039
   C       -1.41687         4.25570         0.57168
   C       -2.17725         3.42923         1.44414
   C       -1.57988         2.63378         2.36606
   C       -2.19606         1.78096         3.31772
   S       -1.17455         1.23364         4.60737
   C       -2.47850         0.35206         5.34322
   C       -3.64834         0.46435         4.57908
   C       -3.48834         1.27252         3.44811
   C       -4.60102         1.50322         2.47475
   C       -5.69470         0.45115         2.64086
   C       -6.09870         0.34294         4.11679
   C       -7.31147        -0.54800         4.22057
   O       -7.34501        -1.62878         4.73023
   C       -4.92999        -0.19830         4.93718
   C       -2.30860        -0.39584         6.52733
   N       -3.24131        -1.24726         6.94655
   C       -2.73338        -1.85352         8.03130
   C       -1.37453        -1.36970         8.32950
   C       -0.84901        -2.01171         9.55255
   O        0.20781        -1.82098        10.10801
   C       -1.95061        -2.91484         9.93072
   C       -3.07816        -2.78464         8.98263
   N       -4.10286        -3.59119         9.34444
   C       -3.69328        -4.19806        10.43356
   C       -2.36348        -3.81694        10.85911
   C       -1.09861        -0.41040         7.39554
   C        0.03287         0.44658         7.26572
   C        1.29907         0.12778         7.62504
   C        2.34434         1.05680         7.38161
   C        3.67731         0.80979         7.50223
   C        4.75619         1.74815         7.24178
   C        4.64011         3.01481         6.73006
   C        5.73525         3.86445         6.46557
   N        6.57668         4.60732         6.22335
   C        3.43651         3.65935         6.37357
   N        2.51045         4.26241         6.05938
   C        6.00956         1.08801         7.58766
   C        5.72684        -0.24533         8.00114
   C        4.27414        -0.48749         7.92694
   O        3.70059        -1.53207         8.13832
   C        6.71374        -1.10675         8.38410
   C        8.05614        -0.66631         8.37318
   C        8.34797         0.66655         7.96262
   C        7.30477         1.53602         7.57161
   C        9.69115         1.09558         7.95299
   C       10.69865         0.25015         8.32977
   C       10.41002        -1.06188         8.73471
   C        9.11715        -1.51013         8.75617
   H       -7.27967         8.74066        -1.94847
   H       -3.27858         8.65997        -4.92889
   H       -4.15851        10.56299        -6.15019
   H       -5.90730        12.26208        -6.49652
   H       -7.89429        12.31549        -5.04220
   H       -8.14887        10.67003        -3.22719
   H       -4.02541         5.23726         0.25991
   H        4.40342         6.21084        -1.79361
   H        4.37782         4.32568         0.14244
   H       -3.25129         3.48568         1.36340
   H       -0.49842         2.66500         2.43230
   H       -4.21149         1.46904         1.45478
   H       -5.02633         2.49860         2.64144
   H       -5.32552        -0.51930         2.30406
   H       -6.55616         0.71974         2.02689
   H       -6.38679         1.33959         4.47078
   H       -8.20844        -0.11273         3.73388
   H       -4.83581        -1.27603         4.77190
   H       -5.11691        -0.09078         6.00721
   H       -4.33060        -4.90959        10.92941
   H       -1.85256        -4.19219        11.72359
   H       -0.14559         1.41969         6.82337
   H        1.53732        -0.83563         8.05098
   H        2.03009         2.03927         7.05098
   H        6.47174        -2.11293         8.69274
   H        7.55920         2.53967         7.27002
   H        9.90800         2.10649         7.63989
   H       11.72429         0.58754         8.31781
   H       11.21751        -1.71546         9.02934
   H        8.88884        -2.51923         9.06677
*
