# ORCA input file
# SCF done       -194.831563474213          0.000549127780
! CAM-B3LYP def2-SVP def2/J RIJCOSX Grid4 TightSCF
%maxcore 5000
%tddft
    Mode sTDDFT
    Ethresh 5.0
    maxcore 5000
end

%pal
  nprocs 6
  end
* xyz 0 1
   C       -9.37296        -9.28713        -4.14733
   C      -10.03935       -10.25881        -4.87780
   C      -10.95033       -11.08145        -4.21433
   C      -11.64668       -12.07654        -4.94592
   N      -12.20774       -12.87253        -5.54715
   C      -11.19824       -10.93783        -2.83470
   C      -12.13675       -11.78353        -2.19418
   N      -12.90199       -12.45003        -1.66441
   C      -10.53102        -9.95631        -2.10388
   C       -9.62926        -9.15146        -2.76962
   C       -8.80808        -8.06507        -2.21108
   O       -8.86966        -7.62263        -1.08681
   C       -7.98283        -7.55731        -3.34961
   C       -8.36675        -8.30548        -4.54454
   C       -7.83606        -8.17485        -5.79583
   C       -8.23512        -8.94465        -6.91359
   N       -8.51898        -9.52832        -7.85854
   C       -6.81092        -7.27272        -6.16239
   N       -5.97269        -6.58208        -6.53176
   C       -7.12753        -6.50709        -3.30147
   C       -6.58012        -5.89811        -2.11261
   C       -6.27685        -4.57558        -2.06681
   C       -5.70038        -3.94014        -0.93057
   C       -5.42616        -2.56854        -0.95305
   C       -4.84721        -1.91281         0.14381
   N       -4.37590        -1.38016         1.04678
   C       -5.70967        -1.76718        -2.06872
   N       -5.94840        -1.11196        -2.98196
   C       -5.39645        -4.68134         0.24002
   C       -5.58785        -6.02180         0.42554
   S       -6.25771        -7.04125        -0.82162
   C       -5.27342        -6.65405         1.68675
   C       -5.61931        -8.00358         1.91355
   C       -5.40620        -8.69441         3.15927
   N       -5.90299        -9.93381         3.30965
   C       -6.53152       -10.51779         2.32242
   C       -6.64693        -9.87464         1.04734
   N       -6.18642        -8.65851         0.89625
   C       -7.28256       -10.48584        -0.06058
   N       -7.82538       -10.95809        -0.95215
   C       -7.10911       -11.79893         2.52428
   N       -7.59985       -12.82579         2.64195
   C       -4.73843        -8.06122         4.22932
   C       -4.41433        -6.70866         4.02410
   C       -4.66798        -6.00599         2.78310
   N       -4.24700        -4.74006         2.86039
   S       -3.62021        -4.45689         4.30211
   N       -3.83021        -5.91549         4.92655
   C       -4.43053        -8.73150         5.47206
   C       -4.26071       -10.07912         5.53852
   C       -4.01423       -10.83168         6.71869
   C       -3.87007       -12.21563         6.64521
   C       -3.71265       -12.98413         7.80829
   N       -3.59822       -13.56971         8.79063
   C       -3.89393       -12.89622         5.41775
   N       -3.89231       -13.43010         4.40074
   C       -3.96345       -10.17948         7.98298
   C       -4.10027        -8.84387         8.17077
   S       -4.26863        -7.68613         6.86871
   C       -4.05510        -8.24693         9.48201
   C       -4.51391        -8.77953        10.63352
   C       -4.07559        -8.19496        11.94229
   O       -3.55573        -7.12271        12.11185
   C       -4.36794        -9.24461        12.94108
   C       -4.03076        -9.27389        14.27886
   C       -4.38524       -10.40079        15.02143
   C       -5.05552       -11.47618        14.40477
   C       -5.40024       -11.43450        13.05322
   C       -5.06310       -10.30584        12.32475
   C       -5.31688        -9.96017        10.92758
   C       -6.30842       -10.49065        10.15399
   C       -6.66995        -9.98843         8.88467
   N       -7.02160        -9.59116         7.86773
   C       -7.14850       -11.54834        10.57307
   N       -7.85542       -12.39746        10.87659
   C       -5.38438       -12.62062        15.17518
   N       -5.65059       -13.54514        15.79463
   C       -4.06380       -10.46701        16.39972
   N       -3.79668       -10.50061        17.51224
   H       -9.87989       -10.39949        -5.93492
   H      -10.70788        -9.83265        -1.04676
   H       -6.77095        -6.07927        -4.23054
   H       -6.51256        -3.95389        -2.92172
   H       -4.97716        -4.12613         1.06894
   H       -4.33334       -10.64255         4.61950
   H       -3.78578       -10.80391         8.84972
   H       -3.56840        -7.28033         9.56148
   H       -3.50706        -8.44866        14.73703
   H       -5.90220       -12.27865        12.60703
*
