# ORCA input file
# SCF done       -215.990615988113          0.001729707543
! CAM-B3LYP def2-SVP def2/J RIJCOSX Grid4 TightSCF
%maxcore 5000
%tddft
    Mode sTDDFT
    Ethresh 5.0
    maxcore 5000
end

%pal
  nprocs 6
  end
* xyz 0 1
   C      -19.81223        -7.69510         5.24045
   C      -21.15447        -7.51036         5.52602
   C      -22.02540        -7.21878         4.47398
   C      -23.40182        -7.02147         4.74838
   N      -24.51089        -6.86055         4.98172
   C      -21.56256        -7.11492         3.14851
   C      -22.47191        -6.81841         2.10462
   N      -23.19519        -6.57930         1.24982
   C      -20.20896        -7.30190         2.86377
   C      -19.35930        -7.58630         3.91146
   C      -17.90013        -7.81410         3.87441
   O      -17.19470        -7.79987         2.88220
   C      -17.49131        -8.05352         5.26049
   C      -18.67005        -8.00077         6.10524
   C      -18.73987        -8.19664         7.45846
   C      -19.93378        -8.12085         8.20967
   N      -20.86786        -8.06971         8.87381
   C      -17.65162        -8.50421         8.30447
   N      -16.82364        -8.75801         9.05774
   C      -16.20152        -8.25664         5.68626
   C      -14.99879        -8.28095         4.96758
   C      -13.76495        -8.43313         5.61850
   C      -12.69923        -8.38848         4.74528
   C      -13.11252        -8.21624         3.39849
   S      -14.80219        -8.10004         3.22305
   C      -11.95631        -8.15435         2.58779
   C      -10.81506        -8.27728         3.41470
   C      -11.24653        -8.44062         4.79285
   C      -10.45728        -8.60357         5.89228
   C       -9.04936        -8.63416         5.80109
   N       -7.90628        -8.65694         5.71890
   C      -10.99708        -8.75207         7.18849
   N      -11.43484        -8.87130         8.24106
   C       -9.62483        -8.18743         2.70777
   C       -9.85436        -8.00380         1.34823
   S      -11.56263        -7.95198         0.93697
   C       -8.91066        -7.83272         0.32181
   C       -9.22854        -7.67668        -1.03317
   C       -8.07785        -7.46659        -1.85818
   N       -8.18955        -7.28777        -3.17319
   C       -9.40476        -7.32669        -3.67738
   C       -9.53083        -7.13148        -5.14523
   O       -8.57406        -6.90459        -5.85355
   C      -10.90295        -7.23475        -5.67057
   C      -11.97696        -7.44799        -4.90308
   C      -11.91993        -7.60286        -3.43889
   O      -12.91047        -7.76518        -2.76019
   C      -10.55456        -7.54697        -2.85410
   N      -10.45531        -7.71201        -1.55178
   C       -6.87539        -7.46338        -1.14057
   S       -7.18815        -7.73549         0.54754
   C       -5.61644        -7.23459        -1.72055
   C       -4.36554        -7.21017        -1.11131
   C       -3.36247        -6.91353        -2.02354
   C       -3.85976        -6.70839        -3.33051
   S       -5.55386        -6.89554        -3.44387
   C       -2.77286        -6.39245        -4.17282
   C       -1.58220        -6.39833        -3.41106
   C       -1.91805        -6.73048        -2.03573
   C       -1.06239        -6.83628        -0.97984
   C        0.32695        -6.62701        -1.11838
   N        1.45379        -6.45106        -1.23023
   C       -1.51447        -7.14921         0.32001
   N       -1.88880        -7.39618         1.37475
   C       -0.46512        -6.06190        -4.16161
   C       -0.77649        -5.82381        -5.49716
   S       -2.50692        -5.98766        -5.80094
   C        0.13366        -5.37225        -6.47354
   C       -0.01939        -5.24268        -7.82298
   C        0.84205        -4.27814        -8.55803
   O        1.85220        -3.75036        -8.16136
   C        0.14901        -4.05819        -9.85069
   C        0.45066        -3.15299       -10.84565
   C       -0.38224        -3.10480       -11.96547
   C       -1.49597        -3.96178       -12.05891
   C       -1.78614        -4.88330       -11.05069
   C       -0.95495        -4.92914        -9.94563
   C       -0.97564        -5.78737        -8.76045
   C       -1.56255        -7.02296        -8.69492
   C       -1.29826        -7.94089        -7.65636
   N       -1.06474        -8.71884        -6.84573
   C       -2.40594        -7.54607        -9.69681
   N       -3.11013        -7.99910       -10.48096
   C       -2.33969        -3.88593       -13.19499
   N       -3.03035        -3.83067       -14.10581
   C       -0.11235        -2.18313       -13.00599
   N        0.12040        -1.42698       -13.83369
   H      -21.54878        -7.58069         6.52690
   H      -19.83685        -7.22455         1.85355
   H      -16.05731        -8.40268         6.74976
   H      -13.69206        -8.55774         6.68454
   H       -8.63667        -8.24362         3.12833
   H      -10.99101        -7.11987        -6.74241
   H      -12.96872        -7.51256        -5.32970
   H       -4.22640        -7.39868        -0.06178
   H        0.54090        -6.00147        -3.78686
   H        1.06427        -4.97113        -6.08165
   H        1.30472        -2.49836       -10.76052
   H       -2.64936        -5.52265       -11.14890
*
