# ORCA input file
# SCF done       -194.448639964659          0.000506973048
! CAM-B3LYP def2-SVP def2/J RIJCOSX Grid4 TightSCF
%maxcore 5000
%tddft
    Mode sTDDFT
    Ethresh 5.0
    maxcore 5000
end

%pal
  nprocs 6
  end
* xyz 0 1
   C        0.21790         2.24920        -2.70599
   C        0.84450         2.32188        -4.10195
   C       -0.70147         3.44381        -2.43868
   C        1.23839         2.04399        -1.60291
   C        0.99237         0.81339        -1.03571
   C       -0.13987         0.23019        -1.71514
   C       -0.73402        -0.98300        -1.49321
   C       -0.30383        -1.89114        -0.50803
   N       -0.00033        -2.67033         0.27658
   C       -1.83926        -1.38747        -2.27094
   N       -2.73596        -1.71715        -2.90460
   O       -0.58611         1.06306        -2.66385
   C        1.70796         0.17609        -0.01064
   N        2.32245        -0.32956         0.81494
   C        2.24010         2.97274        -1.24725
   C        3.11346         2.89979        -0.16563
   C        3.98468         3.97900        -0.11707
   C        3.79263         4.89312        -1.17677
   S        2.52318         4.42651        -2.20888
   C        4.74379         5.92891        -1.07233
   C        5.54490         5.67780         0.06358
   C        5.09118         4.45128         0.70228
   C        5.60661         3.87330         1.82278
   C        6.72119         4.42501         2.49358
   N        7.63693         4.86508         3.02355
   C        5.07288         2.69426         2.38923
   N        4.63904         1.74781         2.86694
   C        6.53139         6.63429         0.24711
   C        6.50453         7.61068        -0.74419
   S        5.22343         7.33562        -1.91648
   C        7.38819         8.70715        -0.92130
   C        8.42051         9.05796        -0.01325
   C        9.36234        10.10235        -0.32836
   N       10.35771        10.37932         0.52114
   C       10.45582         9.73263         1.65633
   C        9.48209         8.73931         1.99769
   N        8.52011         8.42681         1.16512
   C        9.54736         8.10172         3.26404
   N        9.63660         7.63022         4.30310
   C       11.52476        10.04290         2.53317
   N       12.38481        10.28212         3.25016
   C        9.31112        10.86665        -1.51897
   C        8.22885        10.57522        -2.37861
   C        7.29821         9.51753        -2.07570
   N        6.36750         9.39606        -3.02320
   S        6.62542        10.49405        -4.16755
   N        7.92744        11.17295        -3.53209
   C       10.31071        11.82542        -1.81441
   C       10.38875        12.61651        -2.95727
   C       11.52585        13.40834        -2.96146
   C       12.32260        13.22381        -1.80929
   S       11.65854        12.08098        -0.72021
   C       13.46304        14.04408        -1.93123
   C       13.40036        14.74913        -3.15448
   C       12.16531        14.38307        -3.83212
   C       11.69211        14.85512        -5.01925
   C       12.36989        15.83528        -5.77821
   N       12.89837        16.63994        -6.39911
   C       10.47041        14.40332        -5.56508
   N        9.48088        14.03441        -6.01078
   C       14.51092        15.55027        -3.37712
   C       15.43173        15.47864        -2.33463
   S       14.87930        14.39267        -1.05689
   C       16.67200        16.14601        -2.24139
   C       17.28549        16.92014        -3.20133
   C       18.52937        17.40454        -2.65184
   C       19.46897        18.20271        -3.24750
   C       19.34970        18.69761        -4.55933
   N       19.30843        19.13042        -5.62042
   C       20.63679        18.57344        -2.54840
   N       21.58769        18.87361        -1.98274
   O       18.68482        16.95668        -1.40030
   C       17.57636        16.12841        -1.02398
   C       18.13623        14.73755        -0.70970
   C       16.92000        16.76180         0.20550
   C       16.84424        17.18983        -4.50564
   N       16.46875        17.37909        -5.57253
   H        1.35569         3.26726        -4.25183
   H        0.05206         2.22571        -4.83964
   H        1.54968         1.50503        -4.24221
   H       -0.15567         4.37772        -2.53056
   H       -1.12754         3.37381        -1.43978
   H       -1.51149         3.43066        -3.16286
   H        3.09775         2.09263         0.54371
   H        7.25070         6.64752         1.04437
   H        9.63866        12.58045        -3.72572
   H       14.66038        16.16299        -4.24726
   H       18.52890        14.27509        -1.61315
   H       17.37276        14.09669        -0.28082
   H       18.94843        14.84751         0.00414
   H       16.51912        17.74202        -0.04503
   H       17.67279        16.88246         0.97974
   H       16.11953        16.13282         0.58234
*
