# ORCA input file
# SCF done       -218.244488218030          0.000402343890
! CAM-B3LYP def2-SVP def2/J RIJCOSX Grid4 TightSCF
%maxcore 5000
%tddft
    Mode sTDDFT
    Ethresh 5.0
    maxcore 5000
end

%pal
  nprocs 6
  end
* xyz 0 1
   C       13.23860        -9.32035        -4.65754
   C       12.54072       -10.46690        -4.39137
   C       11.75539       -10.56528        -3.23300
   C       11.67881        -9.51679        -2.35738
   C       12.38479        -8.32093        -2.60027
   C       12.31197        -7.23585        -1.69690
   C       13.00589        -6.08731        -1.96836
   C       13.78575        -5.98705        -3.15782
   C       13.88282        -7.02343        -4.04093
   C       13.18034        -8.22101        -3.77830
   C       14.38191        -4.64143        -3.23791
   O       15.14863        -4.21135        -4.06830
   C       13.77877        -3.88001        -2.10377
   C       13.13085        -4.83787        -1.22573
   C       12.89823        -4.68227         0.11436
   C       12.33177        -5.68327         0.92927
   N       11.84654        -6.45896         1.62253
   C       13.25608        -3.52790         0.84232
   N       13.57000        -2.63439         1.49016
   C       13.81162        -2.52643        -2.12682
   C       13.01001        -1.58048        -1.39715
   C       13.49776        -0.28045        -1.20376
   C       12.75790         0.67327        -0.53648
   C       11.49560         0.33364        -0.06915
   C       10.98713        -0.96249        -0.27103
   C       11.72636        -1.90831        -0.93229
   C        9.61106        -1.10051         0.33710
   C        8.56381        -1.51398        -0.69973
   C        9.64215        -2.09765         1.50223
   C        9.36901         0.30219         0.84384
   C        8.24119         0.81089         1.43724
   C        8.20457         2.16477         1.79500
   C        9.32347         2.97155         1.56145
   C       10.46646         2.45711         0.98333
   C       10.48744         1.11988         0.60988
   C        6.98310         2.72832         2.35204
   C        6.16649         2.01378         3.24492
   C        4.86121         2.49319         3.64524
   N        4.16203         1.80121         4.56274
   C        4.63154         0.67419         5.02730
   C        5.89900         0.16576         4.57748
   N        6.62774         0.84802         3.73713
   C        6.37761        -1.07908         5.05738
   N        6.72306        -2.10088         5.44292
   C        3.87233        -0.03878         5.98784
   N        3.25846        -0.65125         6.73665
   C        4.29806         3.67261         3.11418
   C        5.16913         4.44663         2.32390
   C        6.49622         3.98632         1.96218
   N        7.11915         4.86015         1.16315
   S        6.15983         6.11196         0.90284
   N        4.89993         5.63122         1.76260
   C        2.89539         4.00957         3.29337
   C        2.46007         5.34182         3.25405
   C        1.12049         5.66361         3.32811
   C        0.18708         4.64297         3.45523
   C        0.61466         3.30760         3.54416
   C        1.94469         2.98868         3.44770
   C       -0.56159         2.37464         3.71372
   C       -0.61626         1.32015         2.60565
   C       -0.51593         1.70436         5.09213
   C       -1.72087         3.33977         3.61655
   C       -3.06543         3.06990         3.63249
   C       -3.97797         4.11722         3.42936
   C       -3.51092         5.43135         3.31008
   C       -2.16010         5.71192         3.35011
   C       -1.26025         4.66242         3.47546
   C       -5.38209         3.79264         3.35422
   C       -6.27458         4.28992         2.46348
   C       -7.68685         3.94078         2.39595
   C       -8.44366         3.45668         3.42806
   C       -9.81848         3.15870         3.32428
   N      -10.93494         2.89404         3.29252
   C       -7.96039         3.23114         4.73491
   N       -7.63924         3.04322         5.82099
   C       -8.16478         4.27523         1.06256
   C       -7.11349         4.92567         0.35597
   C       -7.26561         5.34793        -0.93333
   C       -8.49848         5.13159        -1.58818
   C       -8.71099         5.53854        -2.92016
   C       -9.91039         5.31067        -3.53824
   C      -10.95113         4.66858        -2.85036
   C      -10.77788         4.26194        -1.55551
   C       -9.55458         4.47858        -0.88872
   C       -9.36897         4.05489         0.44687
   C       -5.92024         5.02881         1.21661
   O       -4.86815         5.55224         0.92634
   H       13.84467        -9.23856        -5.54796
   H       12.58931       -11.30380        -5.07186
   H       11.21122       -11.47714        -3.03772
   H       11.07831        -9.58916        -1.46250
   H       11.69642        -7.33478        -0.81620
   H       14.48533        -6.93013        -4.93223
   H       14.49656        -2.10324        -2.85611
   H       14.48441        -0.03718        -1.56967
   H       13.15232         1.66676        -0.38698
   H       11.31485        -2.88682        -1.13201
   H        8.79627        -2.49743        -1.10120
   H        8.54001        -0.79950        -1.52020
   H        7.57811        -1.55366        -0.24300
   H        9.82674        -3.10502         1.13589
   H        8.69388        -2.08903         2.03394
   H       10.43365        -1.83529         2.20042
   H        7.37378         0.18954         1.59422
   H        9.28701         4.00991         1.84984
   H       11.32504         3.08971         0.81670
   H        3.19294         6.12638         3.16086
   H        0.80579         6.69515         3.28197
   H        2.25593         1.95696         3.45754
   H        0.25552         0.67272         2.65920
   H       -0.63753         1.79886         1.62868
   H       -1.50735         0.70648         2.71180
   H        0.37601         1.08939         5.18456
   H       -1.39092         1.07515         5.23489
   H       -0.49788         2.45767         5.87654
   H       -3.43169         2.05942         3.74367
   H       -4.22257         6.23522         3.21338
   H       -1.81175         6.72972         3.26482
   H       -5.71417         3.01521         4.03361
   H       -6.45275         5.83826        -1.44837
   H       -7.90589         6.03241        -3.44454
   H      -10.06382         5.62323        -4.56040
   H      -11.89144         4.49726        -3.35252
   H      -11.57639         3.76799        -1.02150
   H      -10.18241         3.55406         0.94789
*
