# ORCA input file
# SCF done       -185.239980782011          0.000657795346
! CAM-B3LYP def2-SVP def2/J RIJCOSX Grid4 TightSCF
%maxcore 5000
%tddft
    Mode sTDDFT
    Ethresh 5.0
    maxcore 5000
end

%pal
  nprocs 6
  end
* xyz 0 1
   C       -5.14745        -1.09716         0.51734
   C       -4.70341        -1.50018         1.75053
   C       -4.69899        -2.84192         2.18744
   N       -4.66753        -3.91041         2.60617
   C       -4.19354        -0.66167         2.76462
   N       -3.77162        -0.06459         3.65033
   C       -5.68864        -1.97574        -0.51498
   C       -6.07172        -1.18711        -1.63016
   C       -6.62448        -1.72186        -2.76889
   C       -6.79850        -3.10807        -2.81599
   C       -6.40662        -3.89109        -1.70302
   C       -5.85593        -3.34703        -0.54776
   S       -6.70361        -5.57663        -1.98633
   C       -7.33642        -5.22687        -3.55787
   C       -7.32983        -3.91114        -3.86395
   C       -5.76425         0.22055        -1.35192
   O       -5.94272         1.16243        -2.10488
   C       -5.17756         0.25730        -0.00343
   C       -4.71292         1.38500         0.62189
   C       -4.69381         2.70657         0.15459
   C       -4.14177         3.74635         0.91697
   C       -4.17210         5.00826         0.27836
   S       -3.46494         6.19316         1.31420
   C       -3.20108         4.89656         2.51273
   N       -3.58882         3.73090         2.15236
   C       -2.56523         5.20338         3.80853
   C       -4.79034         4.97506        -0.96757
   S       -5.31418         3.34500        -1.34688
   C       -4.98131         6.00984        -1.91302
   C       -5.82370         5.80464        -3.03887
   C       -5.97666         6.77340        -4.09216
   N       -6.66163         6.44277        -5.19195
   C       -7.27245         5.28811        -5.25662
   C       -7.24085         4.37845        -4.14787
   N       -6.50619         4.65833        -3.10115
   C       -7.98722         3.17491        -4.18181
   N       -8.60743         2.21606        -4.27153
   C       -7.99483         4.97908        -6.43604
   N       -8.60803         4.73176        -7.37146
   C       -5.34965         8.03956        -4.02470
   C       -4.51257         8.24735        -2.90677
   C       -4.34086         7.26888        -1.86095
   N       -3.50332         7.70882        -0.92209
   S       -2.99118         9.18203        -1.29908
   N       -3.79132         9.34492        -2.67990
   C       -5.50061         9.05126        -5.00515
   C       -6.48307         9.24653        -5.97417
   C       -6.25192        10.40934        -6.76224
   S       -7.49770        10.58809        -7.93613
   C       -8.24587         9.10055        -7.26391
   N       -7.61447         8.57155        -6.29187
   C       -9.50381         8.58977        -7.83903
   C       -5.11999        11.13334        -6.41906
   S       -4.33152        10.33366        -5.07342
   C       -4.59095        12.24485        -7.10033
   C       -3.50143        13.00217        -6.78354
   C       -2.71036        13.08804        -5.57561
   C       -3.19388        13.04033        -4.29310
   C       -2.38985        13.09228        -3.14034
   N       -1.77401        13.07576        -2.17081
   C       -4.57481        12.99282        -4.00683
   N       -5.69246        13.02906        -3.74796
   C       -1.37100        13.50405        -5.96976
   C       -1.41200        13.92687        -7.32466
   C       -2.77262        13.72371        -7.86200
   O       -3.19206        14.01309        -8.95867
   C       -0.30373        14.41540        -7.97311
   C        0.89761        14.47641        -7.25925
   C        0.92767        14.04305        -5.91160
   C       -0.19522        13.56070        -5.24881
   S        2.51920        14.19722        -5.23762
   C        3.11787        14.83063        -6.73192
   C        2.17639        14.92463        -7.69580
   H       -6.91259        -1.08778        -3.59299
   H       -5.57662        -3.98850         0.27116
   H       -7.67883        -6.04238        -4.16481
   H       -7.68429        -3.50616        -4.79435
   H       -4.27452         1.28537         1.60811
   H       -3.14399         5.95500         4.34347
   H       -1.56381         5.60224         3.65216
   H       -2.50666         4.29590         4.40321
   H       -9.52135         8.74372        -8.91548
   H      -10.35310         9.12018        -7.40666
   H       -9.60184         7.53028        -7.61376
   H       -5.04201        12.45371        -8.06636
   H       -0.36067        14.73925        -9.00070
   H       -0.13084        13.23581        -4.22306
   H        4.15515        15.09608        -6.79646
   H        2.36479        15.29442        -8.68738
*
