# ORCA input file
# SCF done       -273.047968392678          0.000481963183
! CAM-B3LYP def2-SVP def2/J RIJCOSX Grid4 TightSCF
%maxcore 5000
%tddft
    Mode sTDDFT
    Ethresh 5.0
    maxcore 5000
end

%pal
  nprocs 6
  end
* xyz 0 1
   C        3.58395        -0.00457         1.84758
   C        3.17120         1.26366         1.25857
   C        2.66257         1.38907        -0.03768
   C        2.26865         2.61473        -0.55576
   C        2.35506         3.76438         0.22597
   C        2.82853         3.66606         1.53165
   C        3.21821         2.42897         2.02981
   F        3.67778         2.34910         3.28294
   F        2.90028         4.75095         2.30016
   F        1.97137         4.93775        -0.26399
   F        1.80143         2.68850        -1.80322
   F        2.53329         0.30200        -0.80883
   C        4.33322        -0.96395         1.26105
   C        4.56667        -2.23813         1.97209
   C        3.51539        -2.95595         2.54268
   C        3.72638        -4.16302         3.20069
   C        5.01630        -4.67571         3.30942
   C        6.08334        -3.97261         2.75674
   C        5.85018        -2.77125         2.09741
   F        6.89491        -2.10453         1.59805
   F        7.32268        -4.44957         2.86216
   F        5.22820        -5.82809         3.93839
   F        2.69916        -4.82907         3.72510
   F        2.26766        -2.49373         2.44045
   C        4.97021        -0.80836        -0.02524
   C        5.41324         0.36725        -0.58860
   C        5.91699         0.17596        -1.87370
   C        5.89149        -1.17018        -2.27733
   S        5.21470        -2.18595        -1.08624
   C        6.45508        -1.25714        -3.57509
   C        6.83038         0.03703        -3.99157
   C        6.43291         0.98641        -2.96169
   C        6.37733         2.34659        -3.04482
   C        6.77614         3.06923        -4.19060
   N        7.06046         3.67073        -5.12311
   C        5.79286         3.09316        -1.99948
   N        5.26925         3.65006        -1.14395
   C        7.43415         0.05808        -5.24172
   C        7.50675        -1.21482        -5.79573
   S        6.81201        -2.44469        -4.74750
   C        8.07420        -1.54287        -7.04203
   C        8.85090        -0.70032        -7.85059
   C        9.28035        -1.32903        -9.07002
   N        9.97374        -0.64873        -9.98626
   C       10.29132         0.59302        -9.69861
   C       10.99691         1.37214       -10.75063
   O       11.18361         0.93820       -11.86559
   C       11.42117         2.72312       -10.34084
   C       11.16374         3.25050        -9.13954
   C       10.43746         2.54028        -8.07125
   O       10.26889         3.01310        -6.96930
   C        9.95489         1.18275        -8.43981
   N        9.22810         0.54500        -7.55064
   C        8.85019        -2.65896        -9.18356
   S        7.90745        -3.09717        -7.79461
   C        9.11911        -3.53623       -10.25176
   C       10.03374        -3.31992       -11.27603
   C       10.04875        -4.37525       -12.17837
   C        9.12902        -5.39532       -11.85808
   S        8.27401        -5.06976       -10.41777
   C        9.19560        -6.39676       -12.85887
   C       10.15224        -6.00673       -13.81191
   C       10.77394        -4.76881       -13.37821
   C       11.90783        -4.21692       -13.89766
   C       12.57333        -4.85045       -14.96892
   N       13.10152        -5.42526       -15.80963
   C       12.53887        -3.08097       -13.34500
   N       13.07949        -2.17874       -12.89100
   C       10.27252        -6.91392       -14.86293
   C        9.44858        -8.00522       -14.70227
   S        8.47650        -7.89402       -13.24409
   C        9.36552        -9.16127       -15.56304
   C        8.04882        -9.82441       -15.66235
   C        7.92152       -11.20961       -15.55587
   C        6.68318       -11.83833       -15.63122
   C        5.53228       -11.07958       -15.82707
   C        5.63455        -9.69628       -15.94666
   C        6.88114        -9.08688       -15.86299
   F        6.95272        -7.76044       -16.00744
   F        4.54129        -8.96074       -16.14247
   F        4.34400       -11.67194       -15.90118
   F        6.59563       -13.16221       -15.51492
   F        9.00666       -11.95932       -15.35224
   C       10.40133        -9.62975       -16.29377
   C       11.78379        -9.17011       -16.25034
   C       12.48341        -8.91295       -15.06738
   C       13.80528        -8.49033       -15.07348
   C       14.48279        -8.33074       -16.27996
   C       13.82252        -8.61035       -17.47352
   C       12.49851        -9.03007       -17.44425
   F       11.87418        -9.28853       -18.59808
   F       14.45976        -8.48303       -18.63573
   F       15.75077        -7.93535       -16.28909
   F       14.42810        -8.24393       -13.91975
   F       11.87937        -9.08965       -13.88539
   H        3.26990        -0.14412         2.87277
   H        5.40062         1.30770        -0.07064
   H        7.82696         0.92293        -5.74557
   H       11.96127         3.27911       -11.09526
   H       11.49079         4.24874        -8.88162
   H       10.62399        -2.42309       -11.33407
   H       10.90115        -6.77488       -15.72230
   H       10.21262       -10.40447       -17.02413
*
