# ORCA input file
# SCF done       -235.795475179263          0.000469164508
! CAM-B3LYP def2-SVP def2/J RIJCOSX Grid4 TightSCF
%maxcore 5000
%tddft
    Mode sTDDFT
    Ethresh 5.0
    maxcore 5000
end

%pal
  nprocs 6
  end
* xyz 0 1
   C        5.88001        -6.70938        -1.30784
   C        5.92469        -7.83932        -0.53485
   C        6.60198        -9.02014        -0.90326
   N        7.11874       -10.01074        -1.16412
   C        5.36974        -7.91049         0.76047
   N        4.96694        -7.98573         1.83251
   C        6.69249        -6.47701        -2.50075
   C        6.81208        -5.08799        -2.70313
   C        7.56766        -4.57085        -3.73245
   C        8.21598        -5.46404        -4.59303
   C        8.08527        -6.85007        -4.40702
   C        7.32529        -7.36055        -3.35673
   C        8.78977        -7.76579        -5.35032
   O        9.55083        -7.39391        -6.20568
   O        8.47832        -9.04517        -5.13229
   C        9.11957        -9.99296        -5.97530
   C        8.98423        -4.91088        -5.64969
   N        9.55770        -4.33797        -6.45924
   C        6.01335        -4.36938        -1.68078
   O        5.91993        -3.17818        -1.51352
   C        5.29242        -5.43968        -0.93824
   C        4.22316        -5.11423        -0.15895
   C        3.16210        -5.93055         0.28895
   C        2.28857        -5.62789         1.32599
   C        1.32935        -6.61407         1.51229
   C        1.43869        -7.66684         0.57641
   S        2.72886        -7.44326        -0.50927
   C        0.43637        -8.62304         0.84165
   C       -0.30930        -8.18576         1.95891
   C        0.22024        -6.90561         2.40629
   C       -0.22873        -6.13878         3.43945
   C       -1.32596        -6.51750         4.24392
   N       -2.21869        -6.80852         4.90078
   C        0.36722        -4.90124         3.76631
   N        0.84365        -3.89272         4.03011
   C       -1.30294        -9.08117         2.32503
   C       -1.32912       -10.20039         1.49766
   S       -0.10427       -10.12616         0.23912
   C       -2.17303       -11.34192         1.57443
   C       -3.14044       -11.56505         2.58531
   C       -3.91856       -12.77029         2.62294
   N       -4.81767       -12.95040         3.61205
   C       -4.97431       -12.03957         4.51587
   C       -4.20498       -10.84515         4.47782
   N       -3.33254       -10.63736         3.54672
   F       -4.36207        -9.90856         5.40166
   F       -5.86879       -12.25641         5.47084
   C       -3.79359       -13.80965         1.67233
   C       -2.85018       -13.57710         0.64546
   C       -2.06261       -12.37138         0.61178
   N       -1.22695       -12.35928        -0.42797
   S       -1.40930       -13.71117        -1.27454
   N       -2.54766       -14.38271        -0.37439
   C       -4.54612       -15.00897         1.77214
   C       -4.49130       -16.09017         0.89690
   C       -5.31380       -17.12869         1.30309
   C       -6.00829       -16.83901         2.49943
   S       -5.64858       -15.28070         3.10744
   C       -6.78229       -17.96851         2.84399
   C       -6.57655       -18.97812         1.87115
   C       -5.66772       -18.46745         0.85819
   C       -5.24712       -19.09527        -0.27634
   C       -5.69645       -20.38157        -0.64852
   N       -6.06759       -21.41351        -0.98092
   C       -4.34785       -18.48382        -1.17683
   N       -3.61604       -17.99226        -1.90975
   C       -7.24360       -20.15811         2.15793
   C       -7.96929       -20.07458         3.34245
   S       -7.83377       -18.47064         4.08004
   C       -8.78751       -21.00474         4.01052
   C       -8.85604       -22.36592         3.87276
   C       -9.80978       -23.21176         4.56885
   C      -10.95771       -22.81078         5.19919
   C      -11.85520       -23.68881         5.84557
   N      -12.62114       -24.34372         6.39404
   C      -11.42954       -21.48146         5.26537
   N      -11.88799       -20.43175         5.34300
   C       -9.37602       -24.59788         4.40796
   C       -8.24069       -24.62177         3.57851
   C       -7.87700       -23.24160         3.18462
   O       -6.93176       -22.92780         2.49682
   C       -7.60855       -25.79751         3.23852
   C       -8.12324       -26.99538         3.74522
   C       -9.25128       -26.98111         4.58208
   C       -9.88160       -25.78366         4.91425
   C       -9.76305       -28.28023         5.10630
   O       -9.31114       -29.35311         4.79883
   O      -10.77800       -28.11336         5.95608
   C      -11.33253       -29.30151         6.50416
   C       -7.45651       -28.19582         3.38936
   N       -6.82261       -29.08142         3.03366
   H        7.65906        -3.50418        -3.87100
   H        7.23997        -8.42854        -3.24097
   H       10.20398        -9.90521        -5.88628
   H        8.83848        -9.82386        -7.01668
   H        8.78363       -10.97015        -5.63907
   H        4.13713        -4.06045         0.09032
   H        2.39159        -4.74060         1.92440
   H       -1.98428        -8.96195         3.14614
   H       -3.86461       -16.08546         0.02433
   H       -7.21167       -21.04535         1.55376
   H       -9.42143       -20.56049         4.76945
   H       -6.73995       -25.79220         2.59748
   H      -10.74220       -25.81155         5.56145
   H      -10.58178       -29.83154         7.09387
   H      -11.67986       -29.96004         5.70559
   H      -12.16154       -28.98445         7.13124
*
