# ORCA input file
# SCF done       -159.789175201064          0.000823864968
! CAM-B3LYP def2-SVP def2/J RIJCOSX Grid4 TightSCF
%maxcore 5000
%tddft
    Mode sTDDFT
    Ethresh 5.0
    maxcore 5000
end

%pal
  nprocs 6
  end
* xyz 0 1
   C       -0.66326         0.55479        -1.82249
   O       -1.06623         0.48002        -0.68211
   C       -0.33870         1.81184        -2.53390
   C        0.15736         1.52134        -3.81524
   C        0.50870         2.55762        -4.66471
   C        0.36214         3.86514        -4.21516
   C       -0.12342         4.14270        -2.93586
   C       -0.47977         3.10714        -2.08210
  Br       -0.30732         5.93047        -2.35076
  Br        0.83093         5.28147        -5.37691
   C        0.19430         0.07032        -3.98272
   C        0.76961        -0.58252        -5.04065
   C        1.35643         0.07480        -6.14390
   N        1.84110         0.55143        -7.06852
   C        0.91145        -1.98133        -5.17257
   N        1.08934        -3.10107        -5.35405
   C       -0.40163        -0.52592        -2.79821
   C       -0.75316        -1.84843        -2.71425
   C       -1.32067        -2.59616        -1.66723
   C       -1.50823        -2.34611        -0.31515
   C       -2.10126        -3.39243         0.38281
   C       -2.28709        -3.32375         1.85936
   C       -2.39256        -4.48841        -0.44071
   S       -1.83158        -4.22297        -2.05776
   C       -3.03794        -5.72944        -0.14554
   C       -2.76539        -6.87007        -0.94561
   C       -3.34190        -8.14951        -0.67854
   N       -3.03981        -9.19424        -1.47047
   C       -2.23884        -9.02332        -2.48260
   C       -1.65911        -7.76208        -2.73999
   N       -1.91965        -6.73611        -1.98268
   C       -4.26467        -8.36457         0.37186
   C       -4.60162        -7.22156         1.12444
   C       -4.00185        -5.92624         0.86577
   N       -4.53242        -4.98587         1.65227
   S       -5.62280        -5.64377         2.61672
   N       -5.50786        -7.15656         2.10268
   C       -4.85395        -9.64285         0.55861
   C       -5.86765       -10.00197         1.43530
   C       -6.24735       -11.33610         1.34721
   C       -7.34084       -11.94545         2.15258
   C       -5.52034       -12.02775         0.37201
   S       -4.34812       -10.98585        -0.40348
   C       -5.61951       -13.40009         0.07836
   C       -5.11454       -14.08130        -0.99376
   C       -4.85855       -15.53711        -0.88645
   O       -5.27177       -16.29677        -0.04148
   C       -3.92862       -15.84047        -2.00106
   C       -3.74364       -14.68734        -2.78685
   C       -4.59830       -13.62382        -2.26434
   C       -5.03469       -12.53626        -2.97459
   C       -6.13115       -11.74816        -2.56361
   N       -7.06284       -11.13427        -2.29525
   C       -4.48108       -12.12441        -4.20108
   N       -4.02112       -11.72508        -5.17439
   C       -2.88817       -14.72157        -3.87395
   C       -2.22738       -15.91065        -4.16114
   C       -2.42496       -17.05417        -3.38494
   C       -3.28366       -17.02391        -2.29288
  Br       -1.52346       -18.66139        -3.80732
  Br       -1.04141       -15.95641        -5.63330
   H        0.88391         2.38382        -5.66003
   H       -0.85897         3.30716        -1.09197
   H       -0.61163        -2.43302        -3.61615
   H       -1.21336        -1.42444         0.15107
   H       -1.57707        -2.61499         2.27837
   H       -2.13672        -4.29653         2.31990
   H       -3.29358        -2.98866         2.10077
   H       -2.04118        -9.88301        -3.10650
   H       -0.98018        -7.60182        -3.56477
   H       -6.31104        -9.28937         2.10659
   H       -7.69554       -11.24123         2.89972
   H       -6.99585       -12.84925         2.65314
   H       -8.17451       -12.21912         1.50696
   H       -6.06871       -14.02579         0.84410
   H       -2.71420       -13.85523        -4.49195
   H       -3.44276       -17.90318        -1.68815
*
