# ORCA input file
# SCF done       -166.380283107080          0.000259866116
! CAM-B3LYP def2-SVP def2/J RIJCOSX Grid4 TightSCF
%maxcore 5000
%tddft
    Mode sTDDFT
    Ethresh 5.0
    maxcore 5000
end

%pal
  nprocs 6
  end
* xyz 0 1
   C        2.26547         1.70331         0.23299
   C        2.59658         3.00526         0.50952
   C        3.83422         3.39732         1.05765
   N        4.82334         3.76025         1.51337
   C        1.76908         4.09997         0.19497
   N        1.15341         5.02799        -0.08677
   C        3.17196         0.56323         0.30858
   C        2.64139        -0.49081        -0.49292
   C        3.29688        -1.67923        -0.63712
   C        4.52490        -1.87558         0.03497
   C        5.04898        -0.83358         0.85364
   C        4.35359         0.39132         0.97732
   C        6.26736        -1.04773         1.52925
   C        6.94029        -2.23222         1.40058
   C        6.42586        -3.25615         0.59144
   C        5.24445        -3.08146        -0.07710
   C        1.34516        -0.06896        -1.05630
   O        0.63055        -0.67021        -1.82586
   C        1.05734         1.24476        -0.41841
   C       -0.20776         1.74889        -0.42240
   C       -0.73706         2.76746         0.40760
   C       -0.41031         2.91025         1.73579
   C       -0.99775         4.00239         2.41866
   C       -1.83288         4.79833         1.66152
  Si       -2.01453         4.07648        -0.05814
   C       -2.46772         5.99020         2.08701
   C       -2.27549         6.68143         3.31590
   C       -2.99031         7.89831         3.64061
   N       -2.75529         8.50314         4.81247
   C       -1.89138         7.99302         5.65602
   C       -1.19014         6.78959         5.33752
   N       -1.39654         6.18188         4.19444
   C       -0.26333         6.23191         6.25328
   N        0.47205         5.79576         7.01563
   C       -1.65708         8.65470         6.88736
   N       -1.44553         9.16443         7.89110
   C       -3.94521         8.47826         2.75832
   C       -4.10939         7.79206         1.53308
   C       -3.39036         6.59709         1.20564
   N       -3.71499         6.13711        -0.00252
   S       -4.80891         7.11275        -0.66251
   N       -4.93222         8.16028         0.55117
   C       -4.74204         9.62790         2.98282
   C       -4.68316        10.46516         4.08134
   C       -5.63717        11.50963         4.11299
   C       -6.52918        11.55427         3.06063
  Si       -6.06691        10.23150         1.80202
   C       -7.59230        12.47751         2.94275
   C       -8.36608        12.98869         3.95050
   C       -9.41889        13.97193         3.79451
   C       -9.60918        14.79335         2.71134
   C      -10.63673        15.75412         2.62091
   N      -11.45602        16.54704         2.48385
   C       -8.79796        14.81311         1.55856
   N       -8.17639        14.90117         0.59636
   C      -10.19843        13.99748         5.02650
   C       -9.61616        13.08006         5.94613
   C       -8.43814        12.44211         5.33231
   O       -7.72596        11.60710         5.84851
   C      -10.12946        12.88461         7.19551
   C      -11.27122        13.61599         7.59258
   C      -11.86228        14.53446         6.67779
   C      -11.30903        14.71266         5.38844
   C      -13.00172        15.25788         7.08445
   C      -13.53205        15.08488         8.33408
   C      -12.94904        14.18026         9.23377
   C      -11.84226        13.46163         8.87091
   H        2.88393        -2.46270        -1.25504
   H        4.76696         1.16159         1.60976
   H        6.66067        -0.25485         2.14831
   H        7.87328        -2.38638         1.92158
   H        6.96985        -4.18442         0.50096
   H        4.84352        -3.86683        -0.70102
   H       -0.88971         1.28871        -1.13095
   H        0.23081         2.21410         2.26016
   H       -0.78468         4.18450         3.45904
   H       -1.57076         4.88698        -1.17935
   H       -3.30122         3.40444        -0.24683
   H       -3.96908        10.34510         4.87903
   H       -5.61711        12.24278         4.90324
   H       -5.54942        10.86109         0.59196
   H       -7.17975         9.31145         1.58062
   H       -7.86499        12.73045         1.92447
   H       -9.66733        12.18271         7.87383
   H      -11.78380        15.41031         4.71694
   H      -13.44657        15.95434         6.38891
   H      -14.40419        15.64501         8.63643
   H      -13.38088        14.05560        10.21554
   H      -11.38828        12.76366         9.55915
*
