# ORCA input file
# SCF done       -190.569856746443          0.000706576765
! CAM-B3LYP def2-SVP def2/J RIJCOSX Grid4 TightSCF
%maxcore 5000
%tddft
    Mode sTDDFT
    Ethresh 5.0
    maxcore 5000
end

%pal
  nprocs 6
  end
* xyz 0 1
   C       -0.25643        -2.34598        -5.36742
   S       -1.48183        -2.06366        -6.52598
   C       -2.71106        -2.73591        -5.49692
   C       -2.13126        -3.19807        -4.32253
   C       -0.74388        -2.98697        -4.26016
   O       -0.00048        -3.39416        -3.18636
   C       -0.60409        -4.05588        -2.17637
   O        0.02799        -4.40887        -1.22490
   C       -2.11169        -4.34578        -2.27783
   O       -2.68941        -4.96602        -1.43051
   O       -2.79406        -3.88121        -3.34086
   C       -4.08838        -2.86147        -5.83439
   C       -4.67929        -3.13314        -7.06081
   N       -4.07627        -3.07202        -8.31579
   O       -3.01205        -2.46074        -8.40962
   O       -4.63196        -3.60734        -9.25533
   C       -6.04003        -3.55601        -6.84851
   C       -6.29249        -3.55506        -5.51643
   C       -5.13077        -3.05896        -4.82829
   C       -5.08680        -2.59745        -3.52346
   C       -4.40771        -1.43236        -3.06674
   C       -4.84532        -1.13328        -1.80594
   C       -5.74884        -2.14980        -1.37216
   N       -6.31859        -2.17733        -0.09081
   O       -7.08882        -3.08588         0.18636
   O       -6.02411        -1.27634         0.67505
   C       -5.88340        -3.10048        -2.39035
   C       -6.39735        -4.40057        -2.27353
   C       -6.00996        -5.41316        -3.11281
   C       -6.39723        -6.76058        -3.16268
   N       -7.31996        -7.47660        -2.44311
   C       -8.08423        -7.03391        -1.29959
   C       -7.23480        -7.00321        -0.03171
   C       -7.39770        -8.81940        -2.87516
   O       -8.13930        -9.64263        -2.38946
   C       -6.44399        -8.90082        -3.96784
   C       -5.85205        -7.63925        -4.11365
   C       -4.90940        -7.70638        -5.20710
   O       -4.18365        -6.87406        -5.70664
   N       -4.97479        -9.05632        -5.64029
   C       -4.29327        -9.45053        -6.85263
   C       -5.27302        -9.75171        -7.98241
   C       -5.88448        -9.77243        -4.90953
   C       -6.24182       -11.14731        -5.00921
   C       -5.53129       -12.16050        -5.54134
   C       -6.01338       -13.52277        -5.57809
   C       -5.22405       -14.60882        -5.31557
   S       -6.08789       -16.08804        -5.35386
   C       -7.53277       -15.27503        -5.76340
   C       -7.36560       -13.92084        -5.85557
   C       -8.40706       -13.01941        -6.36647
   O       -8.22048       -11.94343        -6.87207
   O       -9.63639       -13.58701        -6.24501
   C      -10.71520       -12.88079        -6.68414
   C      -11.93283       -13.43316        -6.64701
   C      -13.13097       -12.77798        -7.07749
   S      -14.64631       -13.62482        -7.05820
   C      -15.51308       -12.27925        -7.66717
   C      -14.67837       -11.22161        -7.87701
   C      -13.33061       -11.49692        -7.54601
   O      -12.35259       -10.55147        -7.68150
   C      -12.68385        -9.31987        -8.13028
   O      -11.84374        -8.47579        -8.23131
   C      -14.14887        -9.02875        -8.50798
   O      -14.47219        -7.95861        -8.92864
   O      -15.07102       -10.00547        -8.35759
   H        0.76200        -2.07392        -5.55373
   H       -6.70962        -3.81073        -7.64734
   H       -7.22972        -3.76654        -5.03988
   H       -3.76374        -0.82562        -3.67493
   H       -4.57261        -0.28481        -1.20643
   H       -7.02343        -4.58225        -1.41236
   H       -5.25228        -5.18767        -3.85294
   H       -8.89531        -7.75818        -1.18065
   H       -8.51851        -6.05420        -1.51050
   H       -6.92948        -8.01188         0.23613
   H       -7.81268        -6.58296         0.78597
   H       -6.34167        -6.39859        -0.16926
   H       -3.63856       -10.30329        -6.65739
   H       -3.66513        -8.59620        -7.12332
   H       -5.96699       -10.54209        -7.70694
   H       -4.72343       -10.05832        -8.86776
   H       -5.84681        -8.86062        -8.22370
   H       -7.18470       -11.36580        -4.52462
   H       -4.52633       -12.01252        -5.90699
   H       -4.18248       -14.60809        -5.06147
   H       -8.43074       -15.83031        -5.94746
   H      -10.50812       -11.88376        -7.05027
   H      -12.04863       -14.44074        -6.27517
   H      -16.56814       -12.32659        -7.83804
*
