# ORCA input file
# SCF done       -197.271924313692          0.000836009411
! CAM-B3LYP def2-SVP def2/J RIJCOSX Grid4 TightSCF
%maxcore 5000
%tddft
    Mode sTDDFT
    Ethresh 5.0
    maxcore 5000
end

%pal
  nprocs 6
  end
* xyz 0 1
   O        5.00101        -7.06056         0.11679
   N        5.53992        -6.98566         1.33445
   C        6.52095        -6.11588         1.29427
   C        7.30866        -5.78863         2.42057
   N        7.94407        -5.50734         3.32766
   C        6.64355        -5.57562        -0.02174
   C        5.64442        -6.23539        -0.71642
   C        5.26767        -6.10109        -2.06604
   N        4.97863        -5.94899        -3.16312
   C        7.64608        -4.63562        -0.52330
   O        8.46242        -4.05636         0.13094
   O        7.46402        -4.41316        -1.86994
   C        8.57440        -4.10385        -2.58253
   C        9.79598        -4.73117        -2.49541
   N       10.08384        -5.88288        -1.74748
   O       11.21365        -6.31817        -1.76640
   O        9.15200        -6.39938        -1.13333
   C       10.71813        -4.06538        -3.39164
   C       10.07941        -3.02019        -3.96320
   C        8.71059        -2.97859        -3.49212
   C        7.69143        -2.12134        -3.84394
   C        6.29704        -2.42926        -3.78671
   C        5.61341        -1.48600        -4.49520
   C        6.53547        -0.49345        -4.96137
   N        6.12735         0.68210        -5.62448
   O        4.97500         0.72754        -6.01302
   O        6.93824         1.58226        -5.76000
   C        7.82408        -0.82511        -4.54777
   C        8.98400        -0.04603        -4.68531
   C       10.03180        -0.05925        -3.79858
   C       11.18915         0.71149        -3.99014
   N       12.17098         0.89599        -3.04991
   C       12.21096         0.32576        -1.72241
   C       12.69910        -1.12028        -1.73974
   C       13.20831         1.72491        -3.52046
   O       14.17670         2.04172        -2.86960
   C       12.80457         2.05172        -4.87774
   C       11.58317         1.42588        -5.13953
   C       11.23026         1.71355        -6.51803
   O       10.30600         1.35225        -7.20780
   N       12.28003         2.53801        -6.98912
   C       12.20845         3.06441        -8.33267
   C       11.72410         4.51189        -8.34866
   C       13.22913         2.75139        -6.02440
   C       14.44083         3.47105        -6.05348
   C       15.00005         4.19493        -7.06706
   C       16.24929         4.84872        -6.97500
   C       16.84399         5.55932        -7.99988
   C       18.09897         6.06947        -7.55759
   C       18.24342         5.62073        -6.15724
   C       17.14635         4.89629        -5.82395
   C       19.33037         5.86676        -5.30666
   N       20.20589         6.03939        -4.58523
   C       18.99925         6.81277        -8.28001
   C       20.25333         7.34410        -7.83580
   C       20.83213         7.99368        -8.88760
   C       19.97385         7.91163       -10.05295
   C       18.86509         7.20723        -9.69642
   C       17.79695         6.91338       -10.54998
   N       16.92780         6.68295       -11.26491
   O       22.03165         8.62668        -8.77276
   C       22.71947         9.10663        -9.82314
   O       22.41151         9.02218       -10.98103
   C       23.94746         9.76242        -9.34451
   C       24.36926        10.05273        -8.00969
   N       25.53368        10.65616        -8.02425
   O       25.91719        10.78474        -9.29486
   C       24.98946        10.26336       -10.10723
   C       25.16489        10.27547       -11.50570
   N       25.30301        10.28262       -12.64090
   C       23.66197         9.77001        -6.81956
   N       23.06126         9.54066        -5.87453
   H       11.72358        -4.40240        -3.55430
   H       10.46833        -2.37287        -4.72424
   H        5.89052        -3.32208        -3.35330
   H        4.55754        -1.45155        -4.68830
   H        8.99206         0.66683        -5.50284
   H        9.94953        -0.63618        -2.88856
   H       11.22063         0.39847        -1.26611
   H       12.90972         0.94070        -1.14888
   H       12.04504        -1.75137        -2.33759
   H       12.72329        -1.50806        -0.72565
   H       13.70347        -1.16938        -2.15284
   H       11.48253         2.43708        -8.85864
   H       13.17859         2.95390        -8.82245
   H       10.71411         4.56603        -7.95018
   H       11.71278         4.88238        -9.36967
   H       12.36577         5.15364        -7.74883
   H       14.97466         3.40627        -5.11387
   H       14.50290         4.30298        -8.01873
   H       16.43261         5.70973        -8.97856
   H       16.96475         4.43380        -4.87211
   H       20.66214         7.25449        -6.84964
   H       20.18942         8.33164       -11.01673
*
