# ORCA input file
# SCF done       -209.279045366307          0.000305937549
! CAM-B3LYP def2-SVP def2/J RIJCOSX Grid4 TightSCF
%maxcore 5000
%tddft
    Mode sTDDFT
    Ethresh 5.0
    maxcore 5000
end

%pal
  nprocs 6
  end
* xyz 0 1
   C       -4.20698         2.81436         7.91243
   C       -4.91239         3.15202         9.03294
   F       -5.08113         4.44039         9.36003
   C       -5.47015         2.15435         9.85757
   F       -6.15704         2.51537        10.95040
   C       -5.31494         0.83195         9.54982
   C       -4.59302         0.45178         8.40174
   C       -4.02715         1.45939         7.56781
   C       -3.29313         1.10220         6.41384
   C       -3.12795        -0.22267         6.10486
   C       -3.70412        -1.21964         6.93734
   C       -4.41894        -0.90682         8.05732
   C       -3.41025        -2.55863         6.38671
   O       -3.79487        -3.60956         6.84974
   C       -2.62617        -2.31921         5.14794
   C       -2.41741        -0.88699         5.01624
   C       -1.62219        -0.25318         4.09636
   C       -1.45520         1.14655         4.03230
   N       -1.28148         2.27604         3.92274
   C       -0.82201        -0.88153         3.11747
   N       -0.11682        -1.30095         2.31408
   C       -2.26347        -3.23435         4.19537
   C       -2.26785        -4.64696         4.21082
   C       -2.03716        -5.40132         3.06931
   C       -2.06160        -6.78207         3.40363
   C       -2.28376        -6.84360         4.85540
   C       -2.40209        -5.57335         5.32645
   C       -2.27181        -7.98947         5.66215
   N       -2.22280        -8.89614         6.36518
   C       -1.89069        -7.85730         2.55253
   C       -1.97801        -9.23124         2.87524
   C       -1.63018        -9.98826         1.76560
   C       -1.33642        -9.06342         0.67876
   C       -1.51747        -7.79402         1.12673
   C       -1.36472        -6.64715         0.33916
   N       -1.24093        -5.73429        -0.34678
   C       -1.60099       -11.40189         1.76601
   N       -0.94408       -12.23568         0.89403
   C       -0.04388       -11.88314        -0.17996
   C        1.22223       -11.20080         0.32689
   C       -1.10564       -13.59080         1.24329
   O       -0.59150       -14.50375         0.63035
   C       -1.97002       -13.56697         2.40231
   C       -2.24992       -12.22306         2.70277
   C       -3.18266       -12.19563         3.81665
   O       -3.74087       -11.29282         4.39501
   N       -3.36807       -13.55543         4.14010
   C       -4.25456       -13.94374         5.21086
   C       -5.61830       -14.38598         4.68619
   C       -2.66191       -14.38914         3.31119
   C       -2.66161       -15.79194         3.41636
   C       -1.90892       -16.59395         2.60337
   C       -1.86401       -18.00153         2.67984
   C       -1.03775       -18.81491         1.91741
   C       -1.25178       -20.17075         2.27367
   C       -2.29847       -20.15757         3.31020
   C       -2.64691       -18.86408         3.54783
   C       -2.87188       -21.26630         3.94097
   N       -3.37373       -22.15541         4.46952
   C       -0.61061       -21.28931         1.78131
   C       -0.79944       -22.63768         2.17528
   C        0.06026       -23.45266         1.47034
   C        0.82424       -22.60306         0.56450
   C        0.43290       -21.31447         0.73463
   C        0.93779       -20.22554         0.01753
   N        1.38185       -19.35934        -0.59308
   C        0.15796       -24.88152         1.58107
   C        1.32502       -25.60305         1.22383
   O        2.39612       -24.88332         0.80967
   C        3.60404       -25.54587         0.51898
   C        1.33057       -26.98344         1.35198
   C        0.23219       -27.69419         1.82504
   C       -0.93304       -26.97335         2.19334
   C       -0.94217       -25.59821         2.07052
   O       -1.97649       -27.70541         2.64625
   C       -3.17066       -27.05040         3.03842
   C       -4.14507       -28.11953         3.50586
   C        0.23065       -29.14112         1.94534
   C        1.28401       -29.94744         1.84262
   H       -3.78519         3.59040         7.29294
   H       -5.74810         0.08011        10.19079
   H       -2.88309         1.88914         5.80220
   H       -4.84341        -1.68620         8.67182
   H       -1.90943        -2.82858         3.25383
   H       -1.89070        -5.00850         2.08129
   H       -2.55929        -5.29077         6.34833
   H       -2.26255        -9.61845         3.83299
   H       -1.07310        -9.32823        -0.32683
   H       -0.56321       -11.26234        -0.91413
   H        0.21670       -12.83152        -0.65999
   H        0.99307       -10.26587         0.83370
   H        1.88178       -10.98915        -0.51003
   H        1.74357       -11.85346         1.02307
   H       -4.37477       -13.05722         5.83967
   H       -3.78657       -14.73463         5.80329
   H       -6.08874       -13.56930         4.14446
   H       -6.25912       -14.66411         5.51816
   H       -5.52454       -15.23719         4.01502
   H       -3.27344       -16.23490         4.18849
   H       -1.28850       -16.13801         1.84261
   H       -0.33723       -18.47055         1.18172
   H       -3.38951       -18.53805         4.25222
   H       -1.47704       -22.94550         2.94590
   H        1.55278       -22.95523        -0.13872
   H        4.30859       -24.76054         0.24918
   H        3.49302       -26.23604        -0.32309
   H        3.98387       -26.08711         1.39063
   H        2.20645       -27.54142         1.06734
   H       -1.82618       -25.03869         2.32530
   H       -3.59217       -26.49792         2.18803
   H       -2.96240       -26.34310         3.85160
   H       -4.34921       -28.81748         2.69832
   H       -5.07525       -27.65553         3.81960
   H       -3.72133       -28.66944         4.34165
   H       -0.74080       -29.56477         2.15724
   H        2.28458       -29.59150         1.66445
   H        1.17859       -31.01301         1.94876
*
