# ORCA input file
# SCF done       -244.506503677224          0.000519925148
! CAM-B3LYP def2-SVP def2/J RIJCOSX Grid4 TightSCF
%maxcore 5000
%tddft
    Mode sTDDFT
    Ethresh 5.0
    maxcore 5000
end

%pal
  nprocs 6
  end
* xyz 0 1
   C      -16.94726        -1.33066         3.35179
   C      -17.20944        -0.88151         4.61531
   F      -18.32014        -0.17646         4.86230
   C      -16.31681        -1.15263         5.67294
   F      -16.59978        -0.69828         6.89999
   C      -15.17420        -1.86924         5.45164
   C      -14.87470        -2.34550         4.16018
   C      -15.77682        -2.07190         3.09013
   C      -15.49820        -2.53913         1.78673
   C      -14.35360        -3.25919         1.56106
   C      -13.45886        -3.53087         2.63638
   C      -13.70034        -3.08752         3.90464
   C      -12.31633        -4.31328         2.13364
   O      -11.25816        -4.52449         2.67562
   C      -12.68894        -4.67550         0.72898
   C      -13.83083        -3.86382         0.34211
   C      -14.30726        -3.67967        -0.92678
   C      -13.70643        -4.22735        -2.08051
   N      -13.23300        -4.63652        -3.04292
   C      -15.42450        -2.87697        -1.24342
   N      -16.32512        -2.23945        -1.55719
   C      -12.08730        -5.65601         0.02116
   C      -11.11731        -6.57261         0.54187
   C      -11.13582        -7.31521         1.70868
   N      -12.11469        -7.34817         2.72195
   O      -11.92666        -8.11206         3.64875
   O      -13.10938        -6.64637         2.60973
   C      -10.01025        -8.22097         1.71635
   C       -9.33697        -8.08588         0.54903
   C       -9.97891        -7.06463        -0.23890
   C       -9.53259        -6.52433        -1.42731
   C       -9.72553        -5.16989        -1.83119
   C       -8.84198        -4.87779        -2.83470
   C       -8.11229        -6.05307        -3.16507
   N       -7.10195        -6.07259        -4.15521
   O       -7.06689        -5.13086        -4.92420
   O       -6.31377        -6.99802        -4.15100
   C       -8.56859        -7.12238        -2.37977
   C       -8.37195        -8.47568        -2.67664
   C       -9.10950        -9.51782        -2.15626
   C       -8.92406       -10.84848        -2.54279
   N       -9.54703       -11.91931        -1.94763
   C      -10.48596       -11.88172        -0.84828
   C       -9.77928       -11.89495         0.50250
   C       -9.16658       -13.13966        -2.52370
   O       -9.53751       -14.22813        -2.14648
   C       -8.27776       -12.75267        -3.60909
   C       -8.12965       -11.36896        -3.59497
   C       -7.35431       -11.00132        -4.77426
   O       -6.99676        -9.93236        -5.20310
   N       -7.10161       -12.22977        -5.43109
   C       -6.30111       -12.26294        -6.63321
   C       -4.90666       -12.82457        -6.37557
   C       -7.64950       -13.28455        -4.75655
   C       -7.80984       -14.63342        -5.09641
   C       -7.47925       -15.32201        -6.24037
   C       -7.95533       -16.62362        -6.46741
   C       -7.30336       -17.66298        -7.13864
   N       -6.13154       -17.57583        -7.91120
   O       -5.62375       -16.47531        -8.06801
   O       -5.69761       -18.60632        -8.39064
   C       -7.94571       -18.89232        -6.81272
   C       -8.99337       -18.64207        -5.96858
   C       -9.12930       -17.23261        -5.80427
   C      -10.18241       -16.47233        -5.31673
   C      -10.42319       -15.10134        -5.70982
   C      -11.25343       -14.51869        -4.81345
   C      -11.57071       -15.49089        -3.80430
   N      -12.30081       -15.17549        -2.64989
   O      -12.50552       -13.99132        -2.43057
   O      -12.67576       -16.07789        -1.92068
   C      -11.04509       -16.73115        -4.15516
   C      -11.24460       -17.93007        -3.41733
   C      -11.50627       -19.14234        -3.97154
   C      -11.75114       -20.32873        -3.23621
   C      -12.05481       -21.55852        -3.78468
   C      -12.22333       -22.51440        -2.74023
   C      -11.99917       -21.77590        -1.48117
   C      -11.71868       -20.48339        -1.78797
   C      -12.05136       -22.30089        -0.18396
   N      -12.08156       -22.70498         0.89047
   C      -12.53692       -23.84483        -2.86568
   C      -12.74078       -24.80219        -1.82563
   C      -13.05419       -26.01755        -2.37813
   C      -13.04973       -25.86452        -3.83007
   C      -12.74390       -24.57839        -4.13440
   C      -12.63436       -24.06136        -5.42939
   N      -12.54570       -23.66468        -6.50414
   C      -13.33733       -27.22217        -1.65358
   C      -13.64828       -28.39632        -2.20818
   H      -17.64041        -1.11425         2.55388
   H      -14.50252        -2.06891         6.27175
   H      -16.20184        -2.32364         0.99849
   H      -13.00945        -3.30820         4.70370
   H      -12.35172        -5.81047        -1.01794
   H       -9.78657        -8.87141         2.54012
   H       -8.41251        -8.55882         0.27868
   H      -10.35461        -4.46509        -1.32361
   H       -8.68699        -3.92641        -3.30823
   H       -7.62614        -8.69371        -3.43302
   H       -9.87788        -9.31579        -1.42536
   H      -11.11721       -12.76854        -0.95276
   H      -11.12157       -10.99985        -0.94867
   H       -9.19061       -12.80284         0.60618
   H      -10.51650       -11.86810         1.29920
   H       -9.12098       -11.03515         0.60503
   H       -6.22365       -11.22472        -6.96849
   H       -6.82266       -12.84113        -7.40056
   H       -4.37421       -12.19195        -5.66969
   H       -4.34927       -12.85172        -7.30699
   H       -4.95320       -13.83372        -5.97352
   H       -8.31807       -15.18387        -4.31462
   H       -6.77750       -14.92864        -6.96217
   H       -7.62374       -19.84893        -7.17932
   H       -9.65582       -19.38628        -5.57863
   H      -10.03878       -14.65998        -6.60836
   H      -11.64627       -13.52030        -4.82255
   H      -11.32525       -17.81028        -2.34443
   H      -11.60962       -19.22520        -5.04608
   H      -12.15375       -21.77188        -4.83117
   H      -11.51503       -19.69900        -1.08393
   H      -12.66504       -24.58819        -0.77766
   H      -13.25402       -26.64581        -4.53765
   H      -13.28463       -27.13152        -0.57625
   H      -13.70976       -28.53323        -3.27430
   H      -13.84807       -29.26444        -1.60467
*
