# ORCA input file
# SCF done       -217.636537718732          0.000826274739
! CAM-B3LYP def2-SVP def2/J RIJCOSX Grid4 TightSCF
%maxcore 5000
%tddft
    Mode sTDDFT
    Ethresh 5.0
    maxcore 5000
end

%pal
  nprocs 6
  end
* xyz 0 1
   C       -0.68313         2.63666        -3.34823
   C        0.55145         2.76694        -3.92033
   F        0.91678         3.92868        -4.47551
   C        1.45369         1.68396        -3.93375
   F        2.65608         1.83969        -4.50175
   C        1.10879         0.48540        -3.37413
   C       -0.15589         0.32017        -2.77707
   C       -1.06912         1.41421        -2.76292
   C       -2.34460         1.27229        -2.16937
   C       -2.69636         0.07319        -1.60803
   C       -1.77839        -1.01445        -1.62995
   C       -0.53971        -0.90782        -2.19366
   C       -2.39506        -2.18047        -0.97557
   O       -1.87708        -3.26978        -0.80389
   C       -3.75153        -1.76596        -0.59593
   C       -3.91746        -0.36361        -0.93611
   C       -4.99224         0.43743        -0.64846
   C       -5.07592         1.80159        -1.00104
   N       -5.20640         2.91167        -1.26102
   C       -6.14850         0.03657         0.05296
   N       -7.11082        -0.21729         0.62719
   C       -4.73647        -2.57289        -0.08746
   C       -4.71130        -3.92567         0.28666
   S       -3.29476        -4.93502         0.27715
   C       -4.21511        -6.28455         0.84055
   C       -5.57056        -5.97798         0.99683
   C       -5.84930        -4.63945         0.70749
   C       -7.20488        -3.99550         0.75808
   C       -8.24359        -4.82987         1.47809
   S       -8.19605        -6.46649         0.70139
   O       -9.22277        -7.31686         1.23042
   O       -8.12780        -6.30557        -0.72553
   C       -6.58233        -7.01376         1.31758
   C       -3.59873        -7.53560         1.14401
   N       -2.54265        -8.07061         0.44897
   C       -1.97578        -7.59821        -0.79326
   C       -2.96511        -7.71385        -1.94846
   C       -2.13068        -9.30892         0.99077
   O       -1.23379        -9.98092         0.52962
   C       -2.99621        -9.49566         2.12872
   C       -3.89245        -8.39977         2.19809
   C       -4.68673        -8.58052         3.39346
   O       -5.54928        -7.89442         3.91060
   N       -4.26017        -9.80823         3.93147
   C       -4.83177       -10.28548         5.16786
   C       -3.89657       -10.06287         6.35365
   C       -3.23674       -10.35931         3.19179
   C       -2.51563       -11.56855         3.35417
   C       -2.66621       -12.58502         4.23906
   C       -1.86112       -13.75423         4.20083
   S       -0.56818       -13.96209         3.05443
   C       -0.20218       -15.54716         3.65539
   C       -1.05967       -15.88043         4.71089
   C       -1.98065       -14.86732         5.01081
   C       -1.02830       -17.08702         5.43108
   N       -1.02988       -18.04847         6.05751
   C        0.82328       -16.29536         3.03034
   C        1.11483       -17.59587         3.29158
   C        2.10109       -18.31738         2.58026
   C        2.24189       -19.67192         2.55936
   C        3.51387       -20.29061         2.09628
   O        4.41234       -19.74052         1.50349
   C        3.45620       -21.68832         2.57004
   C        4.41765       -22.65512         2.50232
   C        4.14790       -23.93138         3.04470
   C        2.88526       -24.17729         3.65873
   C        2.62404       -25.45139         4.20202
   C        3.56980       -26.43566         4.13517
   C        4.81794       -26.19143         3.52711
   C        5.10250       -24.96583         2.99322
   F        5.72647       -27.17464         3.47725
   F        3.31891       -27.64675         4.64881
   C        1.90824       -23.15699         3.71306
   C        2.18570       -21.93208         3.16743
   C        1.37101       -20.72541         3.03717
   C        0.00454       -20.67993         3.12790
   C       -0.79094       -19.58835         2.71873
   N       -1.49156       -18.75890         2.34648
   C       -0.78696       -21.77960         3.52422
   N       -1.47119       -22.64462         3.83992
   H       -1.36131         3.47566        -3.34611
   H        1.81069        -0.33353        -3.39294
   H       -3.01239         2.11821        -2.17898
   H        0.13733        -1.74841        -2.19492
   H       -5.70579        -2.10986         0.02998
   H       -7.54761        -3.85714        -0.27307
   H       -7.14050        -3.00913         1.22662
   H       -9.23956        -4.41050         1.37060
   H       -8.01683        -4.98507         2.52877
   H       -6.33961        -7.96565         0.84880
   H       -6.69030        -7.17367         2.39274
   H       -1.11223        -8.24406        -0.97821
   H       -1.62617        -6.56903        -0.68276
   H       -3.28279        -8.74696        -2.06982
   H       -2.48928        -7.38654        -2.86805
   H       -3.84503        -7.09802        -1.77615
   H       -5.10388       -11.33858         5.06252
   H       -5.74776        -9.70537         5.31464
   H       -2.94134       -10.56052         6.20196
   H       -4.35432       -10.44806         7.26059
   H       -3.71366        -8.99913         6.48340
   H       -1.74018       -11.67294         2.60240
   H       -3.42102       -12.57497         5.01033
   H       -2.71608       -14.95475         5.79137
   H        1.35592       -15.78825         2.23548
   H        0.57248       -18.11592         4.06660
   H        2.85177       -17.75404         2.03614
   H        5.37062       -22.44959         2.03896
   H        1.67277       -25.65590         4.66805
   H        6.06234       -24.79479         2.53150
   H        0.96563       -23.36754         4.19240
*
