# ORCA input file
# SCF done       -231.116434471321          0.000990963152
! CAM-B3LYP def2-SVP def2/J RIJCOSX Grid4 TightSCF
%maxcore 5000
%tddft
    Mode sTDDFT
    Ethresh 5.0
    maxcore 5000
end

%pal
  nprocs 6
  end
* xyz 0 1
   C        4.98543        -0.16211        -0.83075
   C        5.20651        -1.32704        -0.10928
   C        6.55746        -1.80389         0.25515
   O        7.60265        -1.27514         0.04571
   S        6.39678        -3.38653         1.10326
   C        4.61457        -3.40845         0.95329
   O        3.94625        -4.33853         1.30604
   C        4.16585        -2.16170         0.30941
   C        2.82173        -1.85646         0.05189
   C        2.61588        -0.68048        -0.67498
   C        3.65861         0.12842        -1.10896
   C        3.05008         1.25755        -1.86625
   O        3.57268         2.17573        -2.40924
   O        1.68940         1.07421        -1.83077
   C        1.34686        -0.05616        -1.12999
   O        0.22156        -0.38893        -0.93703
   C        1.72474        -2.70408         0.47368
   C        0.83474        -3.36579        -0.34606
   N        0.80771        -3.31753        -1.75356
   O        1.67882        -2.66845        -2.31670
   O       -0.06753        -3.93290        -2.32421
   C       -0.03849        -4.18563         0.45600
   C        0.34104        -4.06420         1.74916
   C        1.44814        -3.13567         1.82848
   C        2.04781        -2.63986         2.97226
   C        2.62789        -1.35390         3.14502
   C        2.82954        -1.13812         4.48168
   C        2.45931        -2.31106         5.20438
   N        2.65395        -2.45589         6.58932
   O        2.48240        -3.55519         7.08919
   O        2.99048        -1.46315         7.21121
   C        2.01416        -3.28124         4.30365
   C        1.74121        -4.63378         4.55156
   C        1.96027        -5.61576         3.61534
   C        1.65690        -6.96694         3.83171
   N        2.08589        -7.99190         3.02340
   C        2.97734        -7.86920         1.89271
   C        4.42202        -7.64653         2.32854
   C        1.63193        -9.24056         3.46753
   O        1.90400       -10.29396         2.92969
   C        0.81998        -8.93364         4.63373
   C        0.85822        -7.54582         4.83360
   C       -0.00065        -7.22634         5.96133
   O       -0.31260        -6.17577         6.47060
   N       -0.49158        -8.48116         6.38316
   C       -1.34688        -8.59850         7.54118
   C       -0.56449        -9.04760         8.77203
   C       -0.02064        -9.50402         5.60956
   C       -0.38793       -10.85482         5.79933
   C        0.11366       -11.85086         5.02068
   C       -0.16308       -13.24257         5.08845
   S        0.82567       -14.18508         4.00039
   C       -1.03095       -14.06287         5.81687
   C       -2.04078       -13.65632         6.82018
   O       -2.26941       -12.50676         7.15985
   C       -2.76560       -14.77820         7.39170
   C       -3.74849       -14.75627         8.35880
   N       -4.14431       -16.02683         8.60466
   C       -5.20278       -16.40790         9.50685
   C       -6.54574       -16.46018         8.78142
   C       -3.45454       -16.87823         7.81306
   C       -2.57752       -16.14528         7.04057
   C       -1.62533       -16.56934         6.04333
   O       -1.46150       -17.72256         5.67548
   C       -0.85537       -15.43660         5.48501
   C        0.11770       -15.64939         4.53036
   C        0.56277       -16.94906         4.05113
   C        0.43679       -17.38049         2.72705
   C       -0.21484       -16.58660         1.66615
   O       -0.71267       -15.50547         1.76507
   S       -0.18495       -17.52394         0.13664
   C        0.63447       -18.93755         0.88554
   O        0.92417       -19.92727         0.28952
   C        0.86180       -18.64909         2.31988
   C        1.42030       -19.56574         3.19790
   C        1.53745       -19.14307         4.51386
   C        1.13563       -17.87763         4.92376
   C        1.39674       -17.77837         6.38327
   O        1.22917       -16.86680         7.13048
   O        1.92094       -18.98193         6.77727
   C        2.04047       -19.85556         5.71854
   O        2.47455       -20.95515         5.83026
   H        5.79893         0.46327        -1.16143
   H       -0.84004        -4.77055         0.04897
   H       -0.14714        -4.48947         2.60373
   H        2.76401        -0.63010         2.36444
   H        3.21043        -0.24838         4.94753
   H        1.44246        -4.90260         5.55856
   H        2.45534        -5.35438         2.69094
   H        2.64195        -7.04935         1.25248
   H        2.89567        -8.80965         1.34125
   H        4.52168        -6.71491         2.87955
   H        5.06121        -7.59737         1.45221
   H        4.75605        -8.46726         2.95860
   H       -2.15950        -9.29627         7.32599
   H       -1.76379        -7.60236         7.71212
   H       -0.13169       -10.03320         8.61806
   H       -1.22954        -9.09025         9.62945
   H        0.23429        -8.34182         8.98676
   H       -1.09728       -11.08703         6.57804
   H        0.83101       -11.58705         4.25062
   H       -4.16906       -13.91741         8.87712
   H       -5.24373       -15.67910        10.31983
   H       -4.96573       -17.38866         9.92686
   H       -6.78992       -15.48649         8.36340
   H       -7.33007       -16.74828         9.47507
   H       -6.51268       -17.18565         7.97221
   H       -3.60799       -17.93877         7.84245
   H        1.72794       -20.54678         2.87307
*
