# ORCA input file
# SCF done       -205.451075388395          0.002779796841
! CAM-B3LYP def2-SVP def2/J RIJCOSX Grid4 TightSCF
%maxcore 5000
%tddft
    Mode sTDDFT
    Ethresh 5.0
    maxcore 5000
end

%pal
  nprocs 6
  end
* xyz 0 1
   C       -0.93194         2.16894        -4.17608
   N       -2.14960         2.73766        -3.96145
   C       -3.29954         2.56018        -4.81055
   C       -3.95228         1.19794        -4.59036
   C       -2.17158         3.47255        -2.75471
   O       -3.15774         4.07242        -2.35895
   C       -0.83809         3.31837        -2.23173
   C       -0.10161         2.50177        -3.14588
   C        1.24181         2.36140        -2.62708
   O        2.21697         1.77876        -3.04160
   N        1.23385         3.10959        -1.42715
   C        2.43370         3.14306        -0.62379
   C        2.36515         2.16989         0.55105
   C        0.00264         3.67676        -1.18194
   C       -0.40753         4.49952        -0.09718
   C        0.30080         4.90314         0.98589
   C       -0.21411         5.73312         2.01088
   S       -1.84257         6.36448         2.05142
   C       -1.57130         7.20149         3.56702
   C       -0.27571         6.98090         3.99692
   C        0.48110         6.16788         3.12625
   C        1.84113         5.98281         3.62853
   O        2.73344         5.33776         3.13023
   C        1.91336         6.77682         4.92541
   C        0.52840         7.37990         5.15556
   O        0.19104         8.03396         6.10865
   C       -2.58817         7.96603         4.20086
   C       -3.79586         8.14533         3.62588
   C       -4.92367         8.85445         4.15107
   C       -4.94007         9.70970         5.24116
   C       -3.90049        10.09307         6.08478
   N       -3.07712        10.44360         6.80612
   S       -6.51197        10.41758         5.50001
   C       -7.15338         9.56697         4.13246
   O       -8.43649         9.60552         3.78937
   C       -9.21804        10.64211         4.34223
   C       -6.20290         8.78800         3.51517
   C       -6.48382         8.00987         2.32577
   S       -6.19461         6.30499         2.30518
   C       -6.95888         8.46045         1.11493
   C       -7.23659         9.88371         0.83460
   O       -7.11907        10.77707         1.65497
   C       -7.65004        10.10460        -0.54112
   C       -7.94248        11.28203        -1.19341
   N       -8.27009        10.99732        -2.47669
   C       -8.67930        11.96376        -3.46522
   C      -10.19568        12.14409        -3.46474
   C       -8.21497         9.66028        -2.67134
   C       -7.82667         9.05900        -1.49171
   C       -7.59328         7.65485        -1.21654
   O       -7.81307         6.77070        -2.03287
   C       -7.05231         7.42118         0.13672
   C       -6.64452         6.19391         0.63097
   C       -6.54353         4.90512         0.01630
   C       -6.17848         4.61021        -1.24784
   C       -6.50146         3.27423        -1.82594
   O       -6.73436         2.25375        -1.22548
   C       -6.53701         3.50331        -3.28499
   C       -6.97063         2.66493        -4.27129
   C       -6.93702         3.10766        -5.61246
   C       -6.46157         4.41940        -5.90489
   C       -6.43082         4.85145        -7.24647
   C       -6.84825         4.02224        -8.24887
   C       -7.31738         2.72550        -7.95847
   C       -7.36221         2.27741        -6.66845
   F       -7.71956         1.93260        -8.96187
   F       -6.81396         4.43590        -9.52358
   C       -6.02626         5.26828        -4.86192
   C       -6.05839         4.81418        -3.57033
   C       -5.67029         5.44869        -2.31880
   C       -4.80794         6.49728        -2.17962
   C       -4.32006         6.93986        -0.93558
   N       -3.88149         7.32924         0.05183
   C       -4.28877         7.22511        -3.26835
   N       -3.86925         7.86042        -4.12823
   H       -0.74529         1.57678        -5.05257
   H       -2.98939         2.66750        -5.85428
   H       -4.00137         3.36044        -4.56576
   H       -3.22908         0.40093        -4.74897
   H       -4.77563         1.06629        -5.28647
   H       -4.33354         1.12402        -3.57534
   H        2.63198         4.16402        -0.29170
   H        3.24271         2.83677        -1.29436
   H        1.48534         2.35029         1.16429
   H        3.25023         2.28281         1.17071
   H        2.32330         1.14809         0.18145
   H       -1.43700         4.82980        -0.18622
   H        1.32632         4.61177         1.15391
   H        2.66524         7.56615         4.85126
   H        2.21078         6.14197         5.76272
   H       -2.33360         8.38260         5.16593
   H       -3.95175         7.70558         2.64813
   H      -10.21623        10.52200         3.92650
   H       -8.81305        11.61820         4.06207
   H       -9.25766        10.56224         5.43384
   H       -7.92204        12.28669        -0.82025
   H       -8.34431        11.61951        -4.44689
   H       -8.18915        12.91471        -3.24257
   H      -10.69014        11.20133        -3.68655
   H      -10.48157        12.87339        -4.21729
   H      -10.53616        12.49326        -2.49299
   H       -8.43485         9.21133        -3.61981
   H       -6.81457         4.06100         0.64257
   H       -7.33676         1.67799        -4.03294
   H       -6.07236         5.83988        -7.48737
   H       -7.72701         1.28316        -6.46241
   H       -5.68757         6.26262        -5.10494
*
