# ORCA input file
# SCF done       -179.550847313682          0.000446366124
! CAM-B3LYP def2-SVP def2/J RIJCOSX Grid4 TightSCF
%maxcore 5000
%tddft
    Mode sTDDFT
    Ethresh 5.0
    maxcore 5000
end

%pal
  nprocs 6
  end
* xyz 0 1
   C        2.69786        -0.56212         7.12089
   C        1.73880         0.33992         6.50294
   C        0.94821        -0.32945         5.64689
   C        1.35561        -1.74876         5.64239
   O        0.86495        -2.66196         5.03427
   C        2.51580        -1.82244         6.64978
   C        3.10767        -3.06150         6.99424
   C        3.46232        -3.57182         8.23822
   N        3.50744        -2.91848         9.48181
   O        3.53838        -3.61991        10.47729
   O        3.52268        -1.69818         9.50434
   C        3.69560        -4.98398         8.11874
   C        3.48894        -5.36320         6.82769
   C        3.15776        -4.20641         6.06056
   C        3.07253        -4.09822         4.68686
   C        3.44294        -2.95323         3.91425
   C        3.47047        -3.30727         2.60117
   C        3.07735        -4.67865         2.46920
   N        2.98092        -5.25144         1.18760
   O        2.90340        -6.46629         1.07276
   O        3.00414        -4.48886         0.23860
   C        2.79371        -5.19892         3.74207
   C        2.15716        -6.36317         4.20154
   C        1.93284        -7.53613         3.52119
   C        1.26694        -8.61734         4.11241
   N        1.05746        -9.81817         3.48062
   C        1.50048       -10.17628         2.15141
   C        2.97560       -10.56498         2.13320
   C        0.38245       -10.73461         4.29387
   O        0.09444       -11.86395         3.95133
   C        0.14873       -10.01247         5.53552
   C        0.69462        -8.73202         5.40033
   C        0.45380        -8.00720         6.63991
   O        0.75336        -6.88511         6.98964
   N       -0.24953        -8.91575         7.44203
   C       -0.65282        -8.57549         8.78831
   C        0.31420        -9.13634         9.82657
   C       -0.43746       -10.12250         6.81835
   C       -1.09321       -11.21253         7.40567
   C       -1.17953       -12.42307         6.76129
   C       -1.79807       -13.60776         7.19250
   C       -2.82957       -13.88982         8.10313
   N       -3.46557       -13.07548         9.05691
   O       -2.93474       -12.03110         9.40681
   O       -4.52555       -13.47391         9.50511
   C       -3.27035       -15.23531         7.90437
   C       -2.54606       -15.80741         6.90076
   C       -1.57818       -14.86249         6.44406
   C       -0.49451       -15.11718         5.62193
   C        0.79290       -14.50707         5.73322
   C        1.68293       -15.20823         4.97624
   C        0.98531       -16.25450         4.29250
   N        1.62790       -17.12090         3.39040
   O        0.97111       -17.98914         2.83616
   O        2.82401       -16.96211         3.22279
   C       -0.36478       -16.21220         4.63994
   C       -1.39937       -16.95664         4.03499
   C       -2.71240       -16.59277         3.97385
   C       -3.71976       -17.36913         3.34782
   C       -3.52336       -18.69258         2.69789
   C       -4.68681       -19.13485         2.22275
   C       -5.74806       -18.12744         2.53556
   O       -6.92252       -18.18713         2.26432
   C       -5.03778       -17.04139         3.24944
   H        3.44792        -0.24442         7.81941
   H        1.70043         1.39106         6.72657
   H        0.13086         0.04100         5.05883
   H        3.99583        -5.60118         8.94441
   H        3.66511        -6.33992         6.42257
   H        3.74124        -2.00756         4.32591
   H        3.74437        -2.69255         1.76414
   H        1.80245        -6.30373         5.22239
   H        2.29074        -7.64896         2.50980
   H        1.31430        -9.34336         1.47005
   H        0.89021       -11.03062         1.84700
   H        3.60127        -9.73071         2.44037
   H        3.26005       -10.85772         1.12712
   H        3.15192       -11.40408         2.80216
   H       -1.66539        -8.94402         8.96711
   H       -0.65498        -7.48356         8.83892
   H        0.34214       -10.22256         9.78620
   H       -0.00659        -8.83521        10.81917
   H        1.31634        -8.75095         9.65408
   H       -1.51170       -11.09231         8.39243
   H       -0.70760       -12.49880         5.78982
   H       -4.04787       -15.69151         8.48787
   H       -2.60586       -16.82917         6.58071
   H        1.03830       -13.71536         6.41344
   H        2.73952       -15.04116         4.88455
   H       -1.07442       -17.84181         3.50400
   H       -3.02937       -15.64441         4.38764
   H       -2.57057       -19.18490         2.63322
   H       -4.88832       -20.04831         1.69674
   H       -5.52202       -16.15616         3.61580
*
