# ORCA input file
# SCF done       -218.841353499487          0.000620511870
! CAM-B3LYP def2-SVP def2/J RIJCOSX Grid4 TightSCF
%maxcore 5000
%tddft
    Mode sTDDFT
    Ethresh 5.0
    maxcore 5000
end

%pal
  nprocs 6
  end
* xyz 0 1
   C       -6.79759        -1.56179         1.54225
   O       -7.07118        -1.27614         0.40061
   C       -6.74489        -2.92766         2.12183
   C       -6.41305        -2.85855         3.48595
   C       -6.31787        -4.01037         4.24833
   C       -6.55883        -5.22638         3.62491
   C       -6.88738        -5.31298         2.27343
   C       -6.98336        -4.14638         1.51084
   F       -7.30272        -4.23251         0.22491
   F       -7.11308        -6.50260         1.71209
   F       -6.47910        -6.34937         4.34089
   C       -6.22553        -1.45381         3.84738
   C       -5.76513        -1.00127         5.05647
   C       -5.46653        -1.83599         6.15465
   N       -5.21088        -2.45994         7.08303
   C       -5.48792         0.34828         5.36527
   N       -5.22274         1.41887         5.68438
   C       -6.52417        -0.65331         2.67886
   C       -6.71014         0.70577         2.69735
   C       -6.89105         1.60178         1.63078
   C       -6.61343         1.50174         0.27034
   C       -6.91061         2.67069        -0.41236
   C       -7.43848         3.68449         0.42539
   S       -7.51843         3.20485         2.05283
   C       -7.74825         4.80523        -0.37001
   C       -7.41167         4.52325        -1.70771
   C       -6.85524         3.17778        -1.77281
   C       -6.35852         2.55066        -2.87663
   C       -6.36677         3.16813        -4.14585
   N       -6.37780         3.67544        -5.17399
   C       -5.77096         1.26716        -2.82840
   N       -5.26114         0.24147        -2.80547
   C       -7.68780         5.57867        -2.57109
   C       -8.23694         6.66686        -1.90899
   S       -8.40869         6.37062        -0.18137
   C       -8.65894         7.90705        -2.46234
   C       -9.20117         8.90386        -1.68129
   C       -9.65113        10.13236        -2.14792
   C       -9.44446        10.52103        -3.54906
   C       -8.94381         9.69509        -4.49484
   S       -8.46027         8.07635        -4.20073
   C       -9.86290        11.87768        -3.63115
   C      -10.30831        12.30855        -2.37852
   C      -10.74046        13.65268        -2.40052
   C      -10.61101        14.19543        -3.63932
   S       -9.97053        13.10680        -4.82424
   C      -10.21850        11.21951        -1.44436
   C      -10.64572        11.29341        -0.09905
   C      -10.95763        10.22799         0.69091
   C      -11.30486        10.29443         2.05802
   C      -11.36347        11.38931         2.91444
   C      -11.70127        11.02193         4.21005
   C      -11.90484         9.63369         4.35982
   S      -11.68348         8.79116         2.89028
   C      -12.20701         9.36072         5.70898
   C      -12.19856        10.58231         6.42443
   C      -11.87981        11.65931         5.50756
   C      -11.74077        12.98220         5.81150
   C      -11.91137        13.45217         7.13075
   N      -12.05659        13.81394         8.20908
   C      -11.42233        13.94500         4.83185
   N      -11.17180        14.72014         4.02483
   C      -12.43632        10.41598         7.77876
   C      -12.62725         9.08183         8.12328
   S      -12.54238         8.02736         6.70974
   C      -12.90528         8.51588         9.37834
   C      -12.75229         9.05654        10.62568
   C      -13.51110         8.44690        11.75001
   O      -14.10776         7.39936        11.73278
   C      -13.40415         9.42909        12.85735
   C      -12.54956        10.47883        12.47355
   C      -12.01962        10.18853        11.13788
   C      -10.87154        10.73728        10.62587
   C      -10.13553        11.76479        11.25357
   N       -9.49671        12.59689        11.71759
   C      -10.22916        10.27480         9.46087
   N       -9.65524         9.91716         8.53307
   C      -12.31699        11.54908        13.31877
   C      -12.94468        11.54843        14.55670
   C      -13.78133        10.50981        14.96087
   C      -14.01577         9.43579        14.09863
   F      -14.81991         8.45171        14.48547
   F      -14.36035        10.54332        16.16323
   F      -12.74534        12.57341        15.38676
   H       -6.07317        -4.00389         5.29747
   H       -6.75961         1.17354         3.67400
   H       -6.21363         0.61151        -0.17795
   H       -7.50789         5.57255        -3.63100
   H       -9.24108         8.70770        -0.61918
   H       -8.81958         9.99874        -5.52232
   H      -11.12187        14.19286        -1.55348
   H      -10.85685        15.19289        -3.94709
   H      -10.76239        12.29158         0.30121
   H      -10.97474         9.23644         0.26310
   H      -11.16049        12.39523         2.59715
   H      -12.51697        11.21873         8.48876
   H      -13.36940         7.53396         9.36976
   H      -11.68457        12.38036        13.05391
*
