# ORCA input file
# SCF done       -211.808183786109          0.000415132683
! CAM-B3LYP def2-SVP def2/J RIJCOSX Grid4 TightSCF
%maxcore 5000
%tddft
    Mode sTDDFT
    Ethresh 5.0
    maxcore 5000
end

%pal
  nprocs 6
  end
* xyz 0 1
   C        1.18510         2.86803         1.97742
   C        1.15491         2.09124         3.10819
   C        2.27614         1.41071         3.62925
   N        3.14335         0.83251         4.11049
   C        0.02778         1.82109         3.91247
   N       -0.83210         1.53213         4.61788
   C        2.35961         3.06133         1.13435
   C        1.98882         3.84303         0.01496
   C        2.87131         4.19032        -0.97866
   C        4.19088         3.74266        -0.86175
   C        4.55663         2.96500         0.26318
   C        3.66212         2.61519         1.26700
   S        6.23522         2.51887         0.21232
   C        6.41923         3.36870        -1.29929
   C        5.28418         3.95833        -1.74434
  Br        8.09229         3.39788        -2.14552
   C        0.56022         4.19562         0.10866
   O       -0.04931         4.87494        -0.69035
   C        0.07548         3.58544         1.36855
   C       -1.16550         3.69084         1.93969
   C       -2.36779         4.24644         1.46613
   C       -2.74057         4.80868         0.25014
   C       -4.08525         5.14459         0.21686
   C       -4.76517         4.84789         1.42321
   S       -3.74082         4.15886         2.58832
   C       -6.12681         5.19217         1.26728
   C       -6.31766         5.69837        -0.03044
   C       -5.03951         5.69729        -0.72884
   C       -4.80995         6.11832        -2.00470
   C       -3.54256         6.06891        -2.62618
   N       -2.53436         6.03868        -3.16988
   C       -5.84627         6.63753        -2.81083
   N       -6.68792         7.05920        -3.46549
   C       -7.64594         6.01654        -0.29943
   C       -8.47040         5.75901         0.78302
   S       -7.58658         5.12715         2.16092
   C       -9.87884         5.90539         0.82762
   C      -10.73435         5.69340         1.88831
   C      -12.07035         5.87143         1.52859
   C      -12.24685         6.21722         0.18195
   S      -10.73614         6.34720        -0.64073
   C      -13.59796         6.32948        -0.15462
   C      -14.44751         6.07834         0.94212
   S      -13.57509         5.70660         2.40229
   C      -15.75509         6.18160         0.48656
   C      -15.67925         6.47774        -0.87996
   N      -14.35573         6.57681        -1.25233
   C      -13.80368         6.94457        -2.52819
   C      -16.78952         6.59528        -1.76540
   C      -16.83632         6.50917        -3.14520
   C      -18.13887         6.60452        -3.63362
   C      -19.10082         6.76796        -2.62398
   S      -18.39097         6.80723        -1.06833
   C      -20.38259         6.82837        -3.22623
   C      -20.22192         6.69481        -4.62211
   C      -18.80912         6.56600        -4.92328
   C      -18.23565         6.46457        -6.15739
   C      -16.83843         6.36499        -6.31660
   N      -15.69933         6.28023        -6.41964
   C      -19.01551         6.45513        -7.33284
   N      -19.66656         6.44144        -8.27651
   C      -21.42144         6.75138        -5.31555
   C      -22.50893         6.93652        -4.47322
   S      -22.01469         7.00805        -2.78231
   C      -23.87785         7.00449        -4.80280
   C      -24.44756         7.21827        -6.02303
   C      -23.93922         7.71220        -7.28495
   C      -22.93410         8.62705        -7.46869
   C      -22.59407         9.17871        -8.72170
   N      -22.28425         9.66264        -9.71482
   C      -22.18687         9.19485        -6.41913
   N      -21.56851         9.69747        -5.59222
   C      -24.87124         7.28160        -8.32229
   C      -26.03710         6.76549        -7.70212
   C      -25.85878         6.79088        -6.23731
   O      -26.65747         6.48345        -5.38298
   C      -27.11181         6.30549        -8.42371
   C      -27.02439         6.34317        -9.81962
   C      -25.84762         6.84358       -10.42770
   C      -24.76430         7.31933        -9.69874
   S      -25.94624         6.77994       -12.16024
   C      -27.54637         6.09630       -12.04797
   C      -27.98569         5.92210       -10.77876
  Br      -28.48397         5.67399       -13.61584
   H        2.55069         4.78574        -1.81905
   H        3.99415         2.02281         2.10270
   H        5.21820         4.52214        -2.65686
   H       -1.26709         3.26003         2.92876
   H       -2.04110         4.95283        -0.55410
   H       -8.01632         6.40793        -1.22983
   H      -10.39659         5.41514         2.86992
   H      -16.65835         6.04166         1.04524
   H      -14.36579         7.77125        -2.96256
   H      -13.80510         6.10046        -3.22200
   H      -12.77181         7.26088        -2.37933
   H      -15.98145         6.34380        -3.77045
   H      -21.51855         6.61541        -6.37699
   H      -24.57878         6.78172        -4.00424
   H      -27.99142         5.92514        -7.92864
   H      -23.88301         7.68150       -10.20190
   H      -28.94690         5.51249       -10.52737
*
