# ORCA input file
# SCF done       -155.920215756056          0.000768450328
! CAM-B3LYP def2-SVP def2/J RIJCOSX Grid4 TightSCF
%maxcore 5000
%tddft
    Mode sTDDFT
    Ethresh 5.0
    maxcore 5000
end

%pal
  nprocs 6
  end
* xyz 0 1
   C        0.86932         1.90907        -0.79028
   C        0.06667         2.55498        -1.69822
   C       -1.06216         1.96720        -2.30341
   N       -1.99473         1.53997        -2.81949
   C        0.32051         3.84678        -2.19520
   N        0.49236         4.88969        -2.64423
   C        0.74994         0.49556        -0.43698
   C        1.98591         0.06239         0.12428
   C        2.18496        -1.22973         0.51519
   C        1.13304        -2.16259         0.37075
   C       -0.11303        -1.73113        -0.16807
   C       -0.28783        -0.38626        -0.57032
   C       -1.15722        -2.66886        -0.29767
   C       -0.97950        -3.97189         0.08051
   C        0.24875        -4.39641         0.60826
   C        1.28234        -3.51078         0.75066
   C        2.90737         1.20892         0.20086
   O        4.06098         1.21619         0.56946
   C        2.10632         2.39276        -0.22296
   C        2.61821         3.63466         0.03022
   C        1.99936         4.90260         0.09614
   C        0.67253         5.12636         0.31878
   C        0.04306         6.39067         0.43554
   C        0.63099         7.58534         0.15240
   C        0.04036         8.87265         0.25552
   C       -1.25333         9.13957         0.65613
   C       -1.80098        10.40956         0.78182
   C       -1.01334        11.61305         0.50451
   C        0.27054        11.60003         0.07939
   S        1.16011        10.16200        -0.17862
   C       -1.88189        12.70279         0.77596
   C       -3.12936        12.23254         1.19783
   C       -4.02526        13.29885         1.44412
   C       -3.44670        14.50747         1.22084
   S       -1.80040        14.41576         0.69825
   C       -3.09966        10.79089         1.20689
   C       -4.13253         9.89325         1.53406
   C       -5.32569        10.22050         2.11766
   C       -6.38401         9.32792         2.38720
   C       -6.48227         8.02409         1.98100
   C       -7.60397         7.22366         2.25236
   C       -7.74763         5.94097         1.79422
   C       -8.90601         5.18837         2.04291
   C       -9.14283         3.92159         1.56773
   C      -10.33929         3.13526         1.76874
   C      -11.41977         3.45335         2.55640
   C      -12.55456         2.63226         2.71246
   N      -13.50851         2.01604         2.88632
   C      -11.55939         4.62082         3.33264
   N      -11.75482         5.53854         3.99630
   C      -10.20166         1.90710         0.99020
   C       -8.92706         1.91225         0.35607
   C       -8.21145         3.15267         0.70913
   O       -7.08881         3.46093         0.35981
   C       -8.51572         0.88955        -0.44794
   C       -9.37984        -0.20816        -0.66301
   C      -10.65730        -0.22094        -0.03385
   C      -11.05408         0.85321         0.79641
   C      -11.51317        -1.31845        -0.25701
   C      -11.12775        -2.35464        -1.06334
   C       -9.86958        -2.34076        -1.68297
   C       -9.01412        -1.29055        -1.48673
   H        3.13325        -1.53806         0.92973
   H       -1.24545        -0.08578        -0.96586
   H       -2.10022        -2.33800        -0.70758
   H       -1.78485        -4.68330        -0.02571
   H        0.37199        -5.42822         0.90172
   H        2.23048        -3.83149         1.15705
   H        3.67434         3.61631         0.28820
   H        2.67331         5.74676         0.05814
   H        0.03287         4.26836         0.48329
   H       -0.98967         6.37059         0.75382
   H        1.65498         7.58560        -0.19504
   H       -1.87474         8.28869         0.89387
   H        0.82333        12.50340        -0.12465
   H       -5.04819        13.20118         1.75673
   H       -3.89343        15.47642         1.32984
   H       -3.94117         8.85288         1.31037
   H       -5.47928        11.24383         2.42519
   H       -7.21811         9.73405         2.94694
   H       -5.69113         7.57605         1.39611
   H       -8.40335         7.65915         2.84093
   H       -6.96143         5.49143         1.20547
   H       -9.67383         5.66748         2.63730
   H       -7.54392         0.91899        -0.91830
   H      -12.02931         0.81348         1.25472
   H      -12.48126        -1.32382         0.22230
   H      -11.79104        -3.19068        -1.22836
   H       -9.58175        -3.16621        -2.31707
   H       -8.04419        -1.27379        -1.96210
*
