# ORCA input file
# SCF done       -216.945305278857          0.000820364702
! CAM-B3LYP def2-SVP def2/J RIJCOSX Grid4 TightSCF
%maxcore 5000
%tddft
    Mode sTDDFT
    Ethresh 5.0
    maxcore 5000
end

%pal
  nprocs 6
  end
* xyz 0 1
   C        1.03600         3.41376         5.24397
   C        0.01564         4.24340         5.63100
   C        0.06109         5.05658         6.78106
   N        0.05483         5.74830         7.69701
   C       -1.22606         4.30473         4.96686
   N       -2.25935         4.35179         4.46825
   C        2.21715         3.10158         6.03950
   C        2.74084         1.85091         5.59741
   C        3.83303         1.28411         6.18828
   C        4.46773         1.95964         7.25534
   C        3.95726         3.21706         7.69066
   C        2.81845         3.77641         7.06679
   C        4.60559         3.88350         8.75005
   C        5.70471         3.33566         9.35345
   C        6.20622         2.09754         8.92504
   C        5.60034         1.42385         7.89944
   C        1.93987         1.36007         4.46108
   O        2.04566         0.31367         3.86485
   C        0.99909         2.47407         4.14306
   C        0.38189         2.50555         2.93208
   C       -0.18035         3.60788         2.24578
   C       -1.06809         3.54030         1.18367
   C       -1.40311         4.79883         0.69366
   C       -0.72849         5.83992         1.36319
   S        0.29301         5.27058         2.59703
   C       -1.12401         7.07429         0.79785
   C       -2.05724         6.82189        -0.22273
   C       -2.25762         5.38235        -0.32555
   C       -3.07102         4.72750        -1.20242
   C       -3.85177         5.41717        -2.15414
   N       -4.47886         5.98046        -2.93143
   C       -3.17508         3.32025        -1.22704
   N       -3.25756         2.17745        -1.26166
   C       -2.51929         7.98499        -0.83412
   C       -1.94138         9.11934        -0.28871
   S       -0.81109         8.74155         1.00121
   C       -2.16894        10.46804        -0.65689
   C       -1.54985        11.59445        -0.14575
   C       -2.01522        12.76285        -0.74585
   C       -3.00414        12.52331        -1.71863
   S       -3.35261        10.86068        -1.89763
   C       -3.40851        13.76397        -2.26631
   C       -2.66960        14.78860        -1.64770
   C       -1.77536        14.19298        -0.66607
   C       -0.90363        14.84419         0.15694
   C       -0.77598        16.24895         0.13700
   N       -0.68832        17.39192         0.11062
   C       -0.08412        14.15646         1.07629
   N        0.58230        13.59588         1.82204
   C       -2.98778        16.05653        -2.12498
   C       -3.97161        16.01487        -3.10044
   S       -4.50753        14.37104        -3.42457
   C       -4.54605        17.11216        -3.80707
   C       -3.99541        18.37550        -3.79106
   C       -4.51701        19.47241        -4.46774
   C       -5.75384        19.37328        -5.24416
   C       -6.46001        18.23077        -5.40091
   S       -6.00577        16.73324        -4.70408
   C       -5.97869        20.67649        -5.76362
   C       -4.95630        21.54019        -5.35772
   C       -5.11143        22.82862        -5.91577
   C       -6.22507        22.90863        -6.68982
   S       -7.12922        21.43641        -6.78478
   C       -4.03205        20.80238        -4.53061
   C       -2.85718        21.24885        -3.90105
   C       -2.43826        22.54438        -3.75206
   C       -1.21976        22.82379        -3.11483
   C       -0.63359        24.01629        -2.77507
   C        0.50555        23.96433        -1.81954
   O        1.12377        22.97627        -1.48914
   C        0.68636        25.34594        -1.33903
   C        1.53292        25.81953        -0.37967
   C        1.49933        27.19279        -0.04862
   C        0.57377        28.04639        -0.71563
   C        0.53377        29.41161        -0.37219
   C        1.38491        29.88770         0.58580
   C        2.30543        29.06569         1.24939
   C        2.35482        27.73703         0.93068
   F        1.34886        31.19282         0.91452
   C       -0.28598        27.52711        -1.71229
   C       -0.22241        26.19738        -2.02888
   C       -0.94585        25.40132        -3.02348
   C       -1.62771        25.94281        -4.08584
   C       -2.11566        25.23025        -5.19501
   N       -2.51482        24.73698        -6.15366
   C       -1.84803        27.32454        -4.26206
   N       -2.08317        28.43044        -4.46417
   H        4.21054         0.33211         5.84587
   H        2.45599         4.73393         7.40751
   H        4.21340         4.83488         9.07829
   H        6.19374         3.85347        10.16482
   H        7.07518         1.68035         9.41148
   H        5.98215         0.47011         7.56572
   H        0.39236         1.57007         2.38014
   H       -1.46475         2.60871         0.82218
   H       -3.23667         8.02475        -1.63414
   H       -0.79839        11.54779         0.62199
   H       -2.54294        16.96566        -1.76616
   H       -3.08504        18.50631        -3.22523
   H       -7.36484        18.18051        -5.98538
   H       -4.42589        23.64834        -5.80527
   H       -6.58253        23.76136        -7.23287
   H       -2.22137        20.47785        -3.48176
   H       -3.06834        23.34958        -4.08821
   H       -0.66293        21.96170        -2.75539
   H        2.21906        25.15437         0.12284
   H       -0.15956        30.07483        -0.86553
   H        2.95307        29.49793         1.99562
   H        3.05488        27.08313         1.42870
   H       -0.97919        28.19867        -2.19283
*
