# ORCA input file
# SCF done       -182.437369710952          0.000994421985
! CAM-B3LYP def2-SVP def2/J RIJCOSX Grid4 TightSCF
%maxcore 5000
%tddft
    Mode sTDDFT
    Ethresh 5.0
    maxcore 5000
end

%pal
  nprocs 6
  end
* xyz 0 1
   C        3.86155         2.77853        -0.24069
   C        3.88002         4.10425        -0.59390
   C        4.47807         4.60208        -1.76623
   N        4.90729         5.06844        -2.72404
   C        3.33893         5.12866         0.20528
   N        2.93522         5.99514         0.84185
   C        4.65935         1.72707        -0.86187
   C        4.72411         0.62023         0.03473
   C        5.43836        -0.50335        -0.26464
   C        6.12258        -0.57688        -1.49976
   C        6.05048         0.52061        -2.40524
   C        5.30931         1.67622        -2.06450
   C        6.73291         0.43183        -3.63520
   C        7.45506        -0.68519        -3.95681
   C        7.52603        -1.76508        -3.06461
   C        6.87411        -1.71177        -1.86235
   C        3.91405         0.91609         1.23151
   O        3.77059         0.23744         2.22363
   C        3.24959         2.21615         0.93709
   C        2.17010         2.59621         1.68259
   C        1.16074         3.51825         1.35493
   C        0.77968         4.04688         0.12377
   C       -0.31683         4.94618         0.20795
   S       -0.66013         5.57705        -1.36824
   C        0.66325         4.57374        -2.00178
   N        1.26579         3.85780        -1.12928
   C        1.01055         4.63688        -3.43266
   C       -0.81225         5.12826         1.48757
   S        0.09494         4.13390         2.59737
   C       -1.86047         5.98582         1.92095
   C       -2.69808         6.60730         1.02174
   C       -3.71249         7.49790         1.35186
   C       -4.03782         7.76589         2.75901
   C       -3.35637         7.24861         3.80639
   S       -1.99853         6.21215         3.65476
   C       -5.17578         8.61784         2.72969
   C       -5.53959         8.86840         1.40616
   C       -6.66533         9.71542         1.31338
   C       -7.11933        10.07518         2.54240
   S       -6.20453         9.41034         3.85472
   C       -4.62333         8.19369         0.52312
   C       -4.71129         8.27377        -0.88259
   C       -3.75500         7.90838        -1.78507
   C       -3.94307         7.94762        -3.17831
   C       -5.03492         8.37704        -3.93433
   C       -4.86483         8.20971        -5.33527
   S       -6.21825         8.86515        -6.16511
   C       -6.91130         9.28634        -4.57921
   N       -6.20235         8.96307        -3.56214
   C       -8.23214         9.94617        -4.50774
   C       -3.64207         7.65555        -5.70717
   S       -2.69514         7.37198        -4.24223
   C       -3.00992         7.37158        -6.91904
   C       -3.54372         7.26424        -8.18375
   C       -2.77754         7.17322        -9.40856
   C       -1.41038         7.19111        -9.54162
   C       -0.73625         7.11807       -10.77758
   N       -0.11998         7.06125       -11.74532
   C       -0.47592         7.26247        -8.48922
   N        0.35327         7.30564        -7.69407
   C       -3.72588         7.06948       -10.51489
   C       -5.04442         7.03855        -9.97823
   C       -4.96603         7.11218        -8.50942
   O       -5.89327         6.96857        -7.72685
   C       -6.14616         6.92842       -10.77419
   C       -5.97828         6.85096       -12.17609
   C       -4.66365         6.88416       -12.72170
   C       -3.54016         6.99399       -11.86884
   C       -4.50603         6.80051       -14.11953
   C       -5.59428         6.68857       -14.94190
   C       -6.88867         6.65620       -14.40362
   C       -7.07641         6.73653       -13.05000
   H        5.48195        -1.32849         0.43075
   H        5.26460         2.49134        -2.76995
   H        6.67709         1.26697        -4.31802
   H        7.97606        -0.74233        -4.90086
   H        8.09953        -2.63934        -3.33437
   H        6.92511        -2.54061        -1.17135
   H        2.04237         2.06195         2.61896
   H        0.16768         4.98995        -4.02163
   H        1.33188         3.65742        -3.78036
   H        1.84314         5.32891        -3.57440
   H       -2.56332         6.34108        -0.01369
   H       -3.61926         7.46557         4.82983
   H       -7.11522        10.04080         0.39329
   H       -7.95432        10.70646         2.77605
   H       -5.62927         8.68744        -1.28019
   H       -2.77793         7.58201        -1.46617
   H       -8.18148        10.93554        -4.96134
   H       -8.53876        10.04186        -3.46964
   H       -8.97226         9.36487        -5.05518
   H       -1.94332         7.21336        -6.82151
   H       -7.13556         6.90134       -10.34192
   H       -2.55856         7.01255       -12.31461
   H       -3.50655         6.82532       -14.52872
   H       -5.46282         6.62385       -16.01174
   H       -7.73677         6.56674       -15.06618
   H       -8.07157         6.71125       -12.63001
*
