# ORCA input file
# SCF done       -157.286453763734          0.000838422376
! CAM-B3LYP def2-SVP def2/J RIJCOSX Grid4 TightSCF
%maxcore 5000
%tddft
    Mode sTDDFT
    Ethresh 5.0
    maxcore 5000
end

%pal
  nprocs 6
  end
* xyz 0 1
   C       -5.09658         0.90196        -5.77742
   C       -5.43890         2.06271        -5.14322
   C       -4.84705         2.46767        -3.93062
   C       -3.87416         1.73424        -3.28009
   C       -3.49499         0.51825        -3.91688
   C       -4.11006         0.11223        -5.15909
   N       -3.56654        -1.04148        -5.50232
   O       -2.68389        -1.33386        -4.55264
   N       -2.62273        -0.41501        -3.59223
   C       -3.27172         2.14126        -2.04753
   C       -2.28162         1.49224        -1.33921
   C       -1.93512         2.17542        -0.17160
   C       -2.67832         3.36297         0.00910
   S       -3.78932         3.63084        -1.25788
   C       -2.27448         3.97754         1.21000
   C       -1.26846         3.18209         1.80068
   C       -1.02334         2.02706         0.94060
   C       -0.11223         1.03274         1.15774
   C        0.72670         1.03434         2.29018
   N        1.40994         1.04597         3.21200
   C        0.06141        -0.05246         0.27361
   N        0.22059        -0.94324        -0.43040
   C       -0.80920         3.68046         3.00611
   C       -1.44743         4.86898         3.37134
   S       -2.64646         5.34835         2.16182
   C       -1.32756         5.67141         4.51063
   C       -0.42886         5.57628         5.55324
   C        0.71391         4.77042         5.75356
   C        1.34118         4.97874         6.94835
   C        0.72496         5.95224         7.75987
   S       -0.65984         6.62702         6.94463
   C        1.09022         6.35051         9.03820
   C        2.16897         5.89298         9.81928
   C        2.22932         6.46196        11.05851
   C        1.19944         7.39451        11.32451
   S        0.16119         7.53720         9.92048
   C        1.02406         8.05511        12.52188
   C        0.01675         8.96005        12.86915
   C       -1.02118         9.49801        12.10276
   C       -1.83213        10.34432        12.83678
   C       -1.43591        10.47403        14.18576
   S       -0.03879         9.55054        14.53449
   C       -2.34411        11.33124        14.83610
   C       -3.31886        11.75641        13.90679
   C       -3.02481        11.15963        12.62215
   C       -3.70231        11.31714        11.44740
   C       -4.84525        12.13624        11.33149
   N       -5.77484        12.79666        11.21418
   C       -3.30280        10.67253        10.25830
   N       -2.98565        10.15122         9.28698
   C       -4.27559        12.60052        14.47386
   C       -4.04548        12.82135        15.81622
   S       -2.61097        11.97400        16.39446
   C       -4.82395        13.61523        16.71675
   C       -4.51729        13.77129        18.05445
   C       -5.29061        14.54813        18.93927
   C       -6.41518        15.21500        18.54243
   C       -6.77643        15.09274        17.18832
   C       -5.99118        14.29920        16.27188
   N       -6.57477        14.37672        15.09267
   O       -7.64089        15.15642        15.25401
   N       -7.78387        15.59763        16.49950
   H       -5.54435         0.58516        -6.70365
   H       -6.19101         2.70495        -5.57630
   H       -5.17285         3.39958        -3.49103
   H       -1.85107         0.56663        -1.67618
   H       -0.07503         3.19400         3.61773
   H       -2.05673         6.46798         4.59132
   H        1.07530         4.07653         5.01852
   H        2.22509         4.45195         7.25971
   H        2.86701         5.16043         9.45672
   H        2.98009         6.23364        11.79423
   H        1.74304         7.82304        13.29749
   H       -1.15877         9.27640        11.06159
   H       -5.10898        13.04128        13.95730
   H       -3.64181        13.27306        18.44583
   H       -4.97034        14.60889        19.96859
   H       -7.01200        15.80970        19.21242
*
