# ORCA input file
# SCF done       -155.663701304912          0.000353667498
! CAM-B3LYP def2-SVP def2/J RIJCOSX Grid4 TightSCF
%maxcore 5000
%tddft
    Mode sTDDFT
    Ethresh 5.0
    maxcore 5000
end

%pal
  nprocs 6
  end
* xyz 0 1
   C        4.64307         0.40110         0.51888
   C        5.21424        -0.82249         0.73323
   C        4.54697        -2.01432         0.41293
   C        3.28450        -2.03614        -0.14850
   C        2.64887        -0.77793        -0.35808
   C        3.34118         0.44282        -0.01462
   N        2.63786         1.54911        -0.23184
  Se        1.06929         1.11805        -0.86796
   N        1.42182        -0.59622        -0.82508
   C        2.64051        -3.26718        -0.51860
   C        1.59855        -3.47242        -1.39748
   C        1.29562        -4.83070        -1.55678
   C        2.10876        -5.65733        -0.75813
   S        3.24917        -4.77835         0.15221
   C        1.75936        -7.00078        -0.98584
   C        0.73664        -7.05180        -1.95547
   C        0.40852        -5.67593        -2.33373
   C       -0.53327        -5.28042        -3.23984
   C       -1.32781        -6.20890        -3.94260
   N       -1.97321        -6.96500        -4.51526
   C       -0.77335        -3.92287        -3.53768
   N       -0.97765        -2.82390        -3.79413
   C        0.36563        -8.35040        -2.27125
   C        1.08184        -9.30971        -1.54230
   S        2.23141        -8.54356        -0.44188
   C        0.98823       -10.70520        -1.65131
   C        1.68139       -11.61172        -0.87530
   C        1.76316       -13.02154        -0.98159
   C        2.59604       -13.61919        -0.07105
   C        3.19778       -12.71647         0.82296
   S        2.67516       -11.08707         0.45868
   C        4.10383       -12.80113         1.87409
   C        4.98822       -13.77626         2.36866
   C        5.84768       -13.30440         3.32692
   C        5.68733       -11.93310         3.64609
   S        4.33622       -11.29991         2.74124
   C        6.46624       -11.11502         4.43823
   C        6.28824        -9.73114         4.58880
   C        7.16811        -8.82002         5.18997
   C        6.74032        -7.50595         5.06965
   C        5.50300        -7.39911         4.40125
   S        4.87998        -8.90660         3.91703
   C        5.16269        -6.04088         4.27767
   C        6.18004        -5.25859         4.85692
   C        7.19399        -6.15054         5.38853
   C        8.33719        -5.80751         6.05191
   C        8.68780        -4.46657         6.31302
   N        8.98754        -3.38197         6.53449
   C        9.24268        -6.77863         6.52539
   N        9.98023        -7.56783         6.91175
   C        5.92678        -3.88643         4.73786
   C        4.73689        -3.62486         4.09051
   S        3.90329        -5.10572         3.61771
   C        4.12375        -2.36230         3.78362
   C        2.83829        -2.28274         3.28036
   C        2.20701        -1.06452         2.99001
   C        2.83332         0.13396         3.19082
   C        4.15406         0.11973         3.67696
   C        4.81580        -1.12985         3.97640
   N        6.06620        -0.99508         4.39432
  Se        6.48174         0.70520         4.44103
   N        4.90379         1.19807         3.87798
   H        5.14442         1.32414         0.75995
   H        6.20767        -0.88679         1.15379
   H        5.05201        -2.95209         0.59675
   H        1.10336        -2.66106        -1.89793
   H       -0.38463        -8.62275        -2.99180
   H        0.33365       -11.08994        -2.42169
   H        1.22056       -13.55801        -1.74050
   H        2.77575       -14.67891        -0.02351
   H        5.00527       -14.78192         1.98667
   H        6.61434       -13.90057         3.79049
   H        7.31973       -11.55383         4.93716
   H        8.08341        -9.13356         5.65919
   H        6.56648        -3.10070         5.09517
   H        2.28910        -3.19767         3.10899
   H        1.19923        -1.08713         2.60206
   H        2.36061         1.07857         2.97639
*
