# ORCA input file
# SCF done       -235.915901392537          0.000626032840
! CAM-B3LYP def2-SVP def2/J RIJCOSX Grid4 TightSCF
%maxcore 5000
%tddft
    Mode sTDDFT
    Ethresh 5.0
    maxcore 5000
end

%pal
  nprocs 6
  end
* xyz 0 1
   C       -1.76105         0.89773        -2.31574
   C       -3.13249         1.11503        -2.34221
   C       -3.92184         0.90226        -1.22064
   C       -3.35376         0.47982        -0.02685
   C       -1.98868         0.26982         0.00779
   C       -1.18675         0.46335        -1.13255
   C        0.19607         0.11971        -0.80264
   C        1.15008        -0.24050        -1.71716
   C        0.95835        -0.19419        -3.11478
   N        0.85706        -0.18439        -4.25746
   C        2.39988        -0.79431        -1.37731
   N        3.41821        -1.27315        -1.14893
   C        0.26141        -0.04212         0.63499
   C       -1.13932        -0.13977         1.14211
   O       -1.47787        -0.44704         2.26128
   C        1.28300        -0.03876         1.53438
   C        2.61454         0.39729         1.35861
   C        3.13711         1.23970         0.38853
   C        4.49928         1.45232         0.55487
   C        5.03019         0.76962         1.66820
   S        3.84396        -0.10531         2.51558
   C        6.42425         1.02097         1.72260
   C        6.77223         1.85801         0.64778
   C        5.57600         2.14884        -0.12630
   C        5.48242         2.88324        -1.27213
   C        6.60354         3.50733        -1.85753
   N        7.51676         4.01771        -2.32700
   C        4.24920         3.05586        -1.93545
   N        3.23871         3.19088        -2.46041
   C        8.13385         2.15236         0.60559
   C        8.82441         1.54419         1.63901
   S        7.77599         0.59779         2.67605
   C       10.22383         1.60890         1.88687
   C       11.14804         2.35886         1.21307
   C       12.47226         2.17725         1.67328
   C       13.65254         2.77033         1.17731
   C       13.65762         3.67119         0.04342
   C       14.42993         4.78358        -0.13973
   C       14.21175         5.40211        -1.38929
   C       13.29246         4.77330        -2.17912
   S       12.66568         3.38372        -1.36299
   C       12.82579         5.13680        -3.53976
  Cl       15.04374         6.83262        -1.86216
   C       14.83506         2.41912         1.82071
   C       14.89840         1.49547         2.89488
   C       13.71853         0.90080         3.38872
   C       12.53344         1.27453         2.76484
   S       10.95397         0.65652         3.16018
   C       13.71684        -0.06735         4.46625
   C       12.79698        -0.19693         5.46790
   C       13.06595        -1.28907         6.32034
   C       14.17330        -2.01141         5.98237
   S       14.91912        -1.32606         4.57938
   C       14.73877        -3.21473         6.64182
  Cl       12.06788        -1.66415         7.67208
   C       16.22572         1.29386         3.33677
   C       17.15470         2.00282         2.62821
   S       16.42219         2.98834         1.38091
   C       18.56516         1.99424         2.80227
   C       19.50045         2.76848         2.14247
   C       20.80171         2.47125         2.54769
   C       20.85229         1.45671         3.51793
   S       19.30087         0.88035         3.94141
   C       22.20874         1.20256         3.83543
   C       23.01955         2.06896         3.07702
   C       22.16101         2.89868         2.24796
   C       22.54387         3.87496         1.37719
   C       23.89840         4.22009         1.18121
   N       24.99583         4.51367         1.02917
   C       21.60939         4.61752         0.62383
   N       20.85337         5.22719         0.01491
   C       24.37755         1.88266         3.31715
   C       24.61716         0.85226         4.21164
   S       23.11608         0.15343         4.81962
   C       25.88825         0.42867         4.66899
   C       26.24831        -0.75190         5.23777
   C       25.58959        -2.03970         5.31724
   C       24.76563        -2.58337         4.36572
   C       24.22813        -3.88355         4.44286
   N       23.75183        -4.92748         4.47105
   C       24.44272        -1.93119         3.15831
   N       24.19301        -1.44560         2.14829
   C       26.20018        -2.76969         6.42070
   C       27.36413        -2.07119         6.83637
   C       27.49425        -0.82819         6.05384
   O       28.38319        -0.00967         6.09224
   C       28.18698        -2.54340         7.83058
   C       27.83981        -3.74845         8.44923
   C       26.66728        -4.42763         8.03726
   C       25.83908        -3.95763         7.02478
   S       26.43183        -5.88489         8.94849
   C       27.87707        -5.58394         9.84977
   C       28.51101        -4.44572         9.49309
   H       -1.16609         1.08017        -3.19604
   H       -3.59128         1.45695        -3.25763
   H       -4.98642         1.07196        -1.27740
   H       -3.94960         0.31615         0.85777
   H        1.01011        -0.35760         2.53594
   H        2.53439         1.70291        -0.37124
   H        8.60703         2.76492        -0.13878
   H       10.88280         3.02655         0.41623
   H       15.10275         5.18161         0.59671
   H       13.21712         6.11382        -3.81188
   H       11.73786         5.16230        -3.57819
   H       13.16957         4.40539        -4.27153
   H       11.97636         0.47741         5.62694
   H       14.20341        -3.40977         7.56765
   H       15.79544        -3.07173         6.86291
   H       14.64747        -4.08622         5.99341
   H       16.49673         0.65110         4.15415
   H       19.22837         3.50277         1.40572
   H       25.17163         2.43202         2.84454
   H       26.67337         1.17777         4.61954
   H       29.07283        -2.00016         8.12073
   H       24.95297        -4.50344         6.74492
   H       28.16653        -6.28995        10.60366
   H       29.42285        -4.09780         9.94358
*
