# ORCA input file
# SCF done       -221.744817856189          0.000353840693
! CAM-B3LYP def2-SVP def2/J RIJCOSX Grid4 TightSCF
%maxcore 5000
%tddft
    Mode sTDDFT
    Ethresh 5.0
    maxcore 5000
end

%pal
  nprocs 6
  end
* xyz 0 1
   C       13.03659        -9.65165         4.00682
   C       14.23509       -10.28512         4.32850
   C       15.40637       -10.18632         3.41617
   O       16.41414       -10.83137         3.53536
   O       15.22373        -9.29650         2.43582
   C       14.35935       -11.03859         5.50809
   C       15.56653       -11.69114         5.86608
   N       16.48227       -12.24633         6.27301
   C       13.27897       -11.15004         6.38950
   C       12.10142       -10.51289         6.06409
   C       11.96462        -9.77060         4.87485
   C       10.59896        -9.25476         4.79500
   C        9.96730        -8.86589         3.64491
   C       10.61314        -8.74356         2.39676
   N       11.09786        -8.61257         1.36498
   C        8.57859        -8.62855         3.55360
   N        7.45051        -8.48621         3.40001
   C        9.97631        -9.49454         6.08322
   C       10.83482       -10.44937         6.83391
   O       10.57069       -11.01002         7.86998
   C        8.88060        -8.95794         6.67732
   C        8.14719        -7.78206         6.29982
   C        8.78444        -6.69637         5.67909
   C        8.08806        -5.55851         5.33730
   C        6.72408        -5.50729         5.59543
   C        6.07570        -6.58051         6.23308
   C        6.77950        -7.69665         6.60657
   C        4.60333        -6.28444         6.40973
   C        3.75063        -7.28974         5.62824
   C        4.20897        -6.27804         7.88967
   C        4.50003        -4.90152         5.80563
   C        3.39314        -4.09686         5.69283
   C        3.51266        -2.83563         5.08921
   C        4.76792        -2.42251         4.62448
   C        5.88390        -3.22438         4.73988
   C        5.75182        -4.47190         5.33282
   C        2.35519        -1.96526         4.94442
   C        1.07173        -2.42943         4.88808
   C       -0.07698        -1.63937         4.74244
   C        0.02837        -0.17193         4.73341
   C        1.19669         0.50380         4.76191
   S        2.73305        -0.25025         4.82971
   C       -1.30798         0.30656         4.68571
   C       -2.18627        -0.77534         4.66329
   C       -3.53609        -0.36278         4.60922
   C       -3.64382         0.99147         4.59592
   S       -2.12364         1.82005         4.64328
   C       -1.42933        -2.00187         4.67443
   C       -2.05894        -3.27920         4.62853
   C       -1.50274        -4.45426         4.26082
   C       -2.15816        -5.73741         4.23113
   C       -3.47965        -5.93523         4.66183
   C       -4.07810        -7.17501         4.61379
   C       -3.35105        -8.25619         4.13072
   C       -2.02182        -8.08182         3.70557
   C       -1.43347        -6.84384         3.75358
   C       -1.43610        -9.39425         3.23505
   C       -1.00275        -9.31911         1.76823
   C       -0.26256        -9.82050         4.12373
   C       -2.60889       -10.33052         3.41947
   C       -2.69343       -11.66848         3.13602
   C       -3.87666       -12.36421         3.43782
   C       -4.97377       -11.66138         3.96251
   C       -4.90549       -10.30914         4.20959
   C       -3.71267        -9.64132         3.95682
   C       -3.95992       -13.76580         3.14789
   C       -4.72351       -14.71170         3.75553
   C       -5.00474       -15.99523         3.06221
   O       -4.45833       -16.43001         2.07654
   C       -6.13911       -16.59444         3.80845
   C       -6.42233       -15.80610         4.94052
   C       -7.47297       -16.14619         5.77508
   C       -8.22793       -17.27896         5.47740
   C       -7.92932       -18.07070         4.35570
   C       -6.87309       -17.72092         3.50780
   C       -8.68302       -19.22444         4.02177
   N       -9.22265       -20.15965         3.63880
   C       -9.35973       -17.67943         6.35551
   O       -9.94063       -18.72951         6.27706
   O       -9.67022       -16.74274         7.25734
   C       -5.45432       -14.71197         5.00697
   C       -5.13513       -14.00897         6.13783
   C       -4.01984       -13.14963         6.23811
   N       -3.09564       -12.48938         6.40083
   C       -5.82718       -14.13097         7.36042
   N       -6.36802       -14.18267         8.37134
   H       12.97469        -9.07787         3.09650
   H       16.00104        -9.27324         1.85570
   H       13.36551       -11.72038         7.30195
   H        8.56223        -9.45393         7.58933
   H        9.85039        -6.74188         5.50686
   H        8.59393        -4.72490         4.87450
   H        6.29477        -8.52910         7.09461
   H        3.87584        -8.28857         6.03835
   H        4.05287        -7.30477         4.58356
   H        2.69914        -7.01852         5.68885
   H        4.35375        -7.26448         8.32287
   H        3.16342        -6.00155         8.00047
   H        4.81755        -5.56338         8.43966
   H        2.44360        -4.42167         6.09020
   H        4.85967        -1.45640         4.15045
   H        6.83968        -2.88525         4.37094
   H        0.93506        -3.49704         4.96336
   H        1.24530         1.58109         4.73607
   H       -4.38458        -1.02243         4.58090
   H       -4.54033         1.57909         4.55900
   H       -3.11077        -3.25555         4.88240
   H       -0.47951        -4.46444         3.91171
   H       -4.04554        -5.09905         5.04169
   H       -5.09692        -7.30355         4.94768
   H       -0.41319        -6.70468         3.42358
   H       -0.20031        -8.59529         1.64925
   H       -1.83950        -9.01618         1.14218
   H       -0.64735       -10.28883         1.42884
   H        0.54422        -9.09428         4.05703
   H        0.11490       -10.79014         3.80925
   H       -0.58509        -9.89489         5.15973
   H       -1.85442       -12.20925         2.72377
   H       -5.90239       -12.18829         4.13026
   H       -5.76318        -9.77892         4.59497
   H       -3.39177       -14.11598         2.29127
   H       -7.72947       -15.55757         6.64079
   H       -6.63958       -18.31793         2.63925
   H      -10.39921       -17.04854         7.81969
*
