# ORCA input file
# SCF done       -244.554395925336          0.000796599813
! CAM-B3LYP def2-SVP def2/J RIJCOSX Grid4 TightSCF
%maxcore 5000
%tddft
    Mode sTDDFT
    Ethresh 5.0
    maxcore 5000
end

%pal
  nprocs 6
  end
* xyz 0 1
   C        6.67413       -10.87934         1.95697
   C        6.26632       -12.19852         2.13038
   C        7.26299       -13.25800         2.45612
   O        6.97570       -14.38805         2.74521
   O        8.52226       -12.81665         2.39395
   C        4.91199       -12.55859         2.01545
   C        4.46535       -13.89493         2.17967
   N        3.98236       -14.92794         2.28603
   C        3.95030       -11.58305         1.73943
   C        4.36983       -10.28092         1.56425
   C        5.72658        -9.91357         1.65285
   C        5.86569        -8.47485         1.44508
   C        7.05172        -7.82552         1.22250
   C        8.18896        -8.58972         0.89672
   N        9.11647        -9.13846         0.49344
   C        6.04393        -4.47126        -0.73145
   N        6.24397        -3.45212        -0.24132
   C        4.52408        -7.94229         1.25762
   C        3.55281        -9.08470         1.30824
   O        2.35114        -9.01180         1.21511
   C        4.13212        -6.69128         0.96398
   C        2.80741        -6.34695         0.47982
   C        2.09782        -5.31750         1.08640
   C        2.50594        -4.49147         2.23723
   O        3.51743        -4.54407         2.88804
   N        1.45388        -3.59531         2.44651
   C        0.39080        -3.79879         1.55262
   O       -0.63648        -3.17981         1.53305
   C        0.83198        -4.90896         0.66463
   C        0.21905        -5.49566        -0.42599
   C        0.94451        -6.49287        -1.07687
   C        2.19829        -6.92142        -0.64664
   C        2.81583        -7.95476        -1.50737
   O        3.87420        -8.50192        -1.37132
   S        1.71822        -8.31271        -2.86663
   C        0.45365        -7.16461        -2.29943
   O       -0.58873        -7.00199        -2.85150
   C        1.57281        -2.58654         3.39446
   C        0.56047        -1.84884         3.86855
   C        0.74366        -0.76182         4.79690
   C        1.92258        -0.07035         4.92126
   C        2.14128         0.99589         5.79418
   C        1.07711         1.42718         6.70880
   C       -0.16968         0.89791         6.73665
   S       -0.68771        -0.37235         5.71679
   C        1.62663         2.49527         7.46789
   C        2.93286         2.73974         7.04705
   C        3.52435         3.81355         7.74633
   C        2.66944         4.34208         8.66136
   S        1.12238         3.56821         8.71135
   C        3.27491         1.81932         5.98993
   C        4.50965         1.91061         5.31224
   C        4.96658         1.14213         4.28510
   C        6.18266         1.31864         3.56865
   C        6.78518         0.19969         2.94276
   C        6.31358        -1.19800         2.88465
   O        5.29169        -1.68637         3.29806
   N        7.31683        -1.90871         2.19699
   C        8.35563        -1.05881         1.75858
   O        9.29618        -1.42138         1.11097
   C        8.00851         0.27751         2.27671
   C        8.72910         1.45271         2.18186
   C        8.12162         2.57707         2.72889
   C        6.88236         2.54468         3.36684
   C        6.34822         3.89161         3.63787
   O        5.25101         4.22423         3.97408
   S        7.61829         5.12829         3.27353
   C        8.75253         3.91219         2.62757
   O        9.83190         4.16796         2.18867
   C        7.39541        -3.24711         1.90816
   C        6.69282        -4.23614         2.50453
   C        6.74911        -5.63149         2.23291
   C        7.29234        -6.36895         1.21577
   C        5.65318        -5.64477        -1.48995
   O        4.50830        -5.73622        -1.88852
   C        6.73848        -6.58156        -1.82056
   C        7.98098        -6.57228        -1.15971
   C        8.99769        -7.39052        -1.64833
   C        8.76463        -8.30741        -2.65912
   C        7.51327        -8.33886        -3.29111
   C        6.52350        -7.45035        -2.88883
   C        7.22529        -9.27982        -4.31323
   N        6.93417       -10.03075        -5.12542
   C        9.84288        -9.29982        -3.02801
   O       10.13941        -9.53133        -4.16293
   O       10.42930        -9.89220        -1.99217
   C        8.20628        -5.93758         0.15344
   C        9.35724        -5.24599         0.40126
   C        9.79233        -4.95518         1.71544
   N       10.15582        -4.76629         2.78540
   C       10.21867        -4.82479        -0.63885
   N       10.90940        -4.47645        -1.48351
   H        7.71771       -10.64132         2.08055
   H        9.14046       -13.53675         2.59742
   H        2.90467       -11.84077         1.66466
   H        4.79106        -5.84397         1.09425
   H       -0.75597        -5.19676        -0.77715
   H        2.59657        -2.47080         3.72737
   H       -0.45456        -2.06138         3.56728
   H        2.71873        -0.38185         4.26669
   H       -0.93173         1.26009         7.40874
   H        4.51931         4.18556         7.58428
   H        2.84868         5.16138         9.32979
   H        5.14716         2.70045         5.68309
   H        4.42541         0.25595         4.00136
   H        9.68703         1.51128         1.69192
   H        8.18827        -3.42177         1.19560
   H        5.97687        -3.96136         3.26640
   H        6.17222        -6.21480         2.94273
   H        9.97157        -7.36036        -1.17986
   H        5.56459        -7.43672        -3.38564
   H       10.06323        -9.66487        -1.11210
*
