# ORCA input file
# SCF done       -239.294931709127          0.000253743913
! CAM-B3LYP def2-SVP def2/J RIJCOSX Grid4 TightSCF
%maxcore 5000
%tddft
    Mode sTDDFT
    Ethresh 5.0
    maxcore 5000
end

%pal
  nprocs 6
  end
* xyz 0 1
   C        2.27518        -1.44680        -7.90053
   C        3.37416        -2.25081        -8.55901
   C        3.10918        -3.34800        -9.36744
   C        4.14600        -4.04421        -9.97021
   C        5.45804        -3.63387        -9.79963
   C        5.72427        -2.50296        -9.04435
   C        4.69251        -1.81326        -8.43651
   C        2.64584        -0.97017        -6.50476
   C        3.57996        -1.65681        -5.73277
   C        3.94149        -1.18916        -4.48125
   C        3.35141        -0.05022        -3.96416
   C        2.40086         0.62415        -4.71380
   C        2.05244         0.16923        -5.97158
   C        0.90295        -2.09144        -7.90057
   C       -0.07819        -1.34753        -8.48107
   C        0.34770        -0.13138        -9.12242
   C       -0.44221         0.77112        -9.77985
   C       -1.84224         0.66165        -9.89325
   N       -2.98343         0.64522       -10.00365
   C        0.12597         1.91128       -10.38535
   N        0.59987         2.84094       -10.86111
   S        2.07149         0.05933        -8.99830
   C       -1.42835        -1.76122        -8.42536
   N       -2.49483        -2.15567        -8.28956
   C        0.67528        -3.43012        -7.40143
   C        0.13298        -4.50031        -8.10785
   N       -0.36100        -4.52620        -9.42969
   O       -0.96909        -5.51644        -9.77828
   O       -0.11022        -3.57470       -10.15480
   C        0.25796        -5.70100        -7.32936
   C        0.91100        -5.40079        -6.18005
   C        1.12607        -3.97575        -6.14116
   C        1.39245        -3.27480        -4.97073
   C        0.71106        -2.12404        -4.51380
   C        1.00742        -1.93521        -3.18662
   C        1.94375        -2.92085        -2.77144
   N        2.54202        -2.92871        -1.50459
   O        3.35236        -3.80837        -1.24745
   O        2.22617        -2.04379        -0.72835
   C        2.23230        -3.76368        -3.85833
   C        3.24424        -4.71373        -3.96566
   C        3.73854        -5.19199        -5.16391
   C        4.73196        -6.15325        -5.28673
   S        5.42984        -7.03437        -3.94041
   C        6.49959        -7.98134        -4.95137
   C        6.31655        -7.62134        -6.30552
   C        5.33808        -6.60773        -6.46969
   N        5.22813        -6.31542        -7.78510
   C        6.11445        -7.11288        -8.47364
   C        6.24739        -7.04857        -9.86887
   N        6.36661        -6.99987       -11.00810
   C        6.79978        -7.93109        -7.59481
   C        7.34628        -8.91230        -4.34911
   C        8.21805        -9.72837        -5.02747
   C        9.07089       -10.67178        -4.43586
   C        9.93444       -11.50893        -5.13479
   C       10.62391       -12.34151        -4.22452
   C       10.14330       -11.96123        -2.88127
   C        9.22436       -10.97162        -3.01858
   C       10.56491       -12.49983        -1.65832
   N       10.89285       -12.91262        -0.63875
   C       11.54700       -13.32791        -4.52032
   C       12.19614       -14.21635        -3.62699
   C       13.02367       -15.06434        -4.34357
   C       12.91488       -14.70310        -5.75127
   C       12.03652       -13.67451        -5.86952
   C       11.68374       -13.06066        -7.07653
   N       11.41608       -12.57644        -8.08337
   C       13.80666       -16.10565        -3.79299
   C       14.62270       -16.90547        -4.53528
   C       15.42032       -17.98742        -4.08048
   C       15.46136       -18.57142        -2.83516
   C       16.36010       -19.68790        -2.71340
   C       16.61808       -20.42773        -1.58478
   C       16.05807       -20.19840        -0.31479
   N       15.65452       -20.07402         0.75199
   C       17.51861       -21.51113        -1.64378
   N       18.24833       -22.39417        -1.70463
   S       17.13769       -20.05559        -4.22317
   C       16.32241       -18.63271        -5.10329
   C       17.45788       -17.75007        -5.57374
   C       18.33208       -18.26075        -6.52974
   C       19.40348       -17.50935        -6.97087
   C       19.62011       -16.24069        -6.45679
   C       18.76444       -15.73524        -5.49522
   C       17.68944       -16.48659        -5.04879
   C       15.45000       -19.13839        -6.23874
   C       14.63768       -20.24899        -6.04468
   C       13.79275       -20.68359        -7.04901
   C       13.73949       -20.00540        -8.25479
   C       14.53448       -18.88944        -8.44876
   C       15.38370       -18.45364        -7.44651
   C       14.66691       -18.17536        -1.74183
   N       13.99937       -17.84923        -0.86793
   H        2.09475        -3.63787        -9.57700
   H        3.92206        -4.89013       -10.60424
   H        6.26018        -4.17207       -10.28161
   H        6.73767        -2.14682        -8.94027
   H        4.90766        -0.91652        -7.87442
   H        4.05461        -2.54657        -6.11724
   H        4.68543        -1.72494        -3.91066
   H        3.63007         0.31107        -2.98662
   H        1.93272         1.51355        -4.32181
   H        1.31955         0.71896        -6.54303
   H       -0.11521        -6.65370        -7.65157
   H        1.11192        -6.06016        -5.35854
   H       -0.01354        -1.57809        -5.08674
   H        0.60235        -1.18464        -2.53418
   H        3.72250        -5.02880        -3.04595
   H        3.36278        -4.78177        -6.09294
   H        4.64500        -5.61201        -8.21877
   H        7.54397        -8.64584        -7.88071
   H        7.28953        -8.97854        -3.27146
   H        8.26499        -9.66160        -6.10418
   H       10.04996       -11.52954        -6.20061
   H        8.70029       -10.48684        -2.21674
   H       12.05736       -14.23510        -2.56359
   H       13.43645       -15.17493        -6.56273
   H       13.72674       -16.24148        -2.72464
   H       14.70016       -16.71185        -5.59700
   H       18.16659       -19.25437        -6.92149
   H       20.07261       -17.91681        -7.71313
   H       20.45772       -15.65288        -6.79965
   H       18.93174       -14.75236        -5.08130
   H       17.03733       -16.07776        -4.29038
   H       14.67080       -20.78649        -5.10792
   H       13.17434       -21.55292        -6.88613
   H       13.08034       -20.34426        -9.03918
   H       14.49688       -18.35145        -9.38406
   H       16.00097       -17.58226        -7.61203
*
