# ORCA input file
# SCF done       -203.178238814260          0.000760555115
! CAM-B3LYP def2-SVP def2/J RIJCOSX Grid4 TightSCF
%maxcore 5000
%tddft
    Mode sTDDFT
    Ethresh 5.0
    maxcore 5000
end

%pal
  nprocs 6
  end
* xyz 0 1
   C       -0.08995         6.06695       -11.69116
   C       -0.73738         7.12563       -11.10556
   C       -1.81430         7.80430       -11.72136
   N       -2.70469         8.36278       -12.17938
   C       -0.49014         7.62232        -9.81970
   N       -0.39872         8.07909        -8.76607
   C       -0.45603         5.43615       -12.94918
   C        0.09564         4.11967       -12.97977
   C       -0.09410         3.28711       -14.04460
   C       -0.84771         3.74325       -15.14941
   C       -1.38335         5.06456       -15.13390
   C       -1.17661         5.90391       -14.01587
   C       -2.11841         5.51123       -16.25114
   C       -2.31865         4.69380       -17.33009
   C       -1.79368         3.39276       -17.34261
   C       -1.07460         2.92744       -16.27509
   C        0.87843         3.88923       -11.75596
   O        1.42868         2.87986       -11.38450
   C        0.90825         5.21632       -11.07081
   C        1.87001         5.48029       -10.15910
   C        2.27679         6.75279        -9.65580
   C        2.39595         7.97319       -10.32401
   N        2.31065         8.23947       -11.69602
   O        1.99265         7.33691       -12.46354
   O        2.55747         9.37620       -12.06410
   C        2.75605         8.99173        -9.37965
   C        2.77127         8.43808        -8.13899
   C        2.51934         7.03051        -8.25199
   C        2.47192         6.13665        -7.18360
   C        2.87138         4.78791        -7.13032
   C        2.88245         4.38458        -5.81602
   C        2.42022         5.43650        -4.98187
   N        2.33485         5.26489        -3.59716
   O        2.48447         4.13400        -3.16254
   O        2.14076         6.23912        -2.87875
   C        2.08853         6.53722        -5.80138
   C        1.28437         7.65876        -5.63034
   C        0.79326         8.19605        -4.45271
   C       -0.05949         9.28931        -4.41099
   S       -0.42361        10.03451        -2.86271
   C       -1.38115        11.31544        -3.55506
   C       -1.45483        11.15035        -4.95116
   C       -0.72672        10.01632        -5.41682
   N       -0.88295         9.92295        -6.75317
   C       -1.68585        10.95915        -7.16248
   C       -2.03741        11.13669        -8.51052
   N       -2.33484        11.30476        -9.60466
   C       -2.05413        11.74164        -6.08298
   C       -1.90878        12.28794        -2.69222
   C       -2.60797        13.39752        -3.07095
   C       -3.09412        14.37008        -2.16864
   S       -3.89533        15.80018        -2.76544
   C       -4.11446        16.43442        -1.16784
   C       -3.59480        15.54151        -0.21894
   C       -3.02717        14.39588        -0.78446
   C       -3.63396        15.71615         1.17682
   N       -3.64136        15.79390         2.32116
   C       -4.74601        17.69110        -1.00266
   C       -4.83745        18.36523         0.17332
   C       -5.45427        19.63032         0.36284
   C       -6.50555        20.18250        -0.30817
   C       -7.04096        21.50971        -0.04394
   C       -6.35343        22.55513         0.51247
   C       -6.90574        23.83620         0.72332
   N       -7.30612        24.89293         0.92366
   C       -4.99539        22.50742         0.89467
   N       -3.88862        22.54525         1.19763
   C       -8.39737        21.55801        -0.56840
   C       -8.65779        20.33675        -1.25366
   C       -7.47329        19.46490        -1.18745
   O       -7.34892        18.37837        -1.71015
   C       -9.85684        20.09347        -1.86044
   C      -10.86938        21.07695        -1.80362
   C      -10.61904        22.29760        -1.11140
   C       -9.36674        22.52307        -0.49579
   C      -11.63988        23.26809        -1.05483
   C      -12.85002        23.04652        -1.65405
   C      -13.09492        21.84561        -2.33676
   C      -12.12563        20.88218        -2.41077
   H        0.33072         2.29424       -14.04843
   H       -1.57311         6.90683       -14.03783
   H       -2.52220         6.51270       -16.23624
   H       -2.88248         5.04534       -18.18104
   H       -1.96000         2.76169       -18.20277
   H       -0.66660         1.92727       -16.27986
   H        2.41082         4.61254        -9.80107
   H        2.96896        10.00649        -9.65497
   H        3.04411         8.93328        -7.22670
   H        3.23047         4.20105        -7.95215
   H        3.19828         3.42916        -5.43939
   H        1.01794         8.16152        -6.54857
   H        1.11727         7.78275        -3.50703
   H       -0.57125         9.18804        -7.39575
   H       -2.68059        12.60838        -6.13387
   H       -1.70884        12.12792        -1.64188
   H       -2.79520        13.57787        -4.11832
   H       -2.58806        13.61458        -0.19071
   H       -5.13970        18.13347        -1.90545
   H       -4.34300        17.96210         1.04712
   H       -5.05807        20.19298         1.20108
   H      -10.03053        19.16162        -2.37787
   H       -9.20812        23.45287         0.02726
   H      -11.44579        24.19177        -0.52984
   H      -13.62549        23.79604        -1.60540
   H      -14.05561        21.68744        -2.80331
   H      -12.30886        19.95562        -2.93478
*
