# ORCA input file
# SCF done       -236.487219508765          0.000611506714
! CAM-B3LYP def2-SVP def2/J RIJCOSX Grid4 TightSCF
%maxcore 5000
%tddft
    Mode sTDDFT
    Ethresh 5.0
    maxcore 5000
end

%pal
  nprocs 6
  end
* xyz 0 1
   C       -6.63227        -3.44042        -9.02347
   C       -5.66231        -4.32480        -9.40470
   F       -4.80026        -4.00227       -10.37464
   C       -5.55766        -5.58614        -8.78288
   F       -4.59956        -6.43378        -9.17608
   C       -6.42455        -5.94500        -7.78903
   C       -7.43605        -5.05640        -7.37493
   C       -7.54160        -3.78045        -8.00187
   C       -8.54704        -2.87225        -7.60082
   C       -9.41925        -3.23062        -6.60712
   C       -9.31610        -4.51075        -5.99145
   C       -8.35088        -5.40590        -6.35746
   C      -10.38512        -4.66877        -4.98781
   O      -10.60565        -5.65402        -4.31280
   C      -11.17614        -3.41151        -5.05924
   C      -10.52330        -2.50855        -5.99043
   C      -10.82604        -1.18584        -6.15911
   C      -11.79715        -0.50412        -5.39290
   N      -12.53202         0.10227        -4.75365
   C      -10.15721        -0.33210        -7.06205
   N       -9.64808         0.39625        -7.78733
   C      -12.41217        -3.25290        -4.51655
   C      -12.97393        -4.10914        -3.52926
   C      -14.21518        -4.71670        -3.55851
   N      -15.16093        -4.57786        -4.59438
   O      -16.25291        -5.08475        -4.43555
   O      -14.82186        -3.94956        -5.58523
   C      -14.35477        -5.58810        -2.42340
   C      -13.19280        -5.55958        -1.72051
   C      -12.29099        -4.62779        -2.34274
   C      -11.08988        -4.16666        -1.85213
   C      -10.54340        -2.86059        -2.01452
   C       -9.46831        -2.74360        -1.18842
   C       -9.23307        -3.99513        -0.51962
   N       -8.13028        -4.13370         0.33766
   O       -7.25918        -3.28461         0.25998
   O       -8.09156        -5.07303         1.11967
   C      -10.19129        -4.91955        -0.93984
   C      -10.27115        -6.32568        -0.91675
   C       -9.57455        -7.18095        -0.10534
   C       -9.50926        -8.58646        -0.18312
   S       -8.74058        -9.38335         1.16597
   C       -8.88999       -10.93698         0.41906
   C       -9.47113       -10.82364        -0.84423
   C       -9.85452        -9.51898        -1.17027
   C      -10.59279        -9.17725        -2.43923
   C      -11.92933        -8.75964        -2.06395
   N      -13.00001        -8.50868        -1.75410
   C      -10.74710       -10.37200        -3.40421
   C       -9.60360       -11.36226        -3.25856
   C       -9.61381       -11.94909        -1.83628
   C       -8.54141       -12.91596        -1.74529
   N       -7.69494       -13.68378        -1.73623
   C       -8.49038       -12.12453         1.09361
   C       -7.85187       -12.12483         2.28269
   C       -7.43653       -13.28652         3.02769
   C       -6.89190       -13.10627         4.30027
   C       -6.49809       -14.19029         5.06518
   N       -5.99204       -13.93764         6.39248
   O       -5.74191       -12.78962         6.68499
   O       -5.85171       -14.88837         7.13174
   C       -6.62271       -15.50694         4.59937
   C       -7.15295       -15.67485         3.31500
   C       -7.54842       -14.60121         2.54918
   C       -6.17057       -16.65722         5.37165
   C       -6.92345       -17.73523         5.67473
   C       -8.30829       -17.83265         5.36064
   C       -9.17065       -18.85724         5.58601
   C      -10.45330       -18.86804         4.82261
   O      -10.92926       -17.94170         4.20710
   C      -10.95435       -20.25085         4.91770
   C      -12.03537       -20.81508         4.30246
   C      -12.30544       -22.18569         4.50880
   C      -11.43955       -22.94970         5.34448
   C      -11.70766       -24.31979         5.53897
   C      -12.78609       -24.90283         4.93520
   C      -13.64305       -24.14564         4.11026
   C      -13.40911       -22.81565         3.90076
   F      -14.69127       -24.74383         3.53026
   F      -13.03997       -26.20369         5.12100
   C      -10.33147       -22.33700         5.97243
   C      -10.09702       -21.00260         5.77114
   C       -9.07514       -20.10842         6.31530
   C       -8.34241       -20.36040         7.44177
   C       -7.56000       -19.40979         8.13442
   N       -6.94906       -18.68239         8.77683
   C       -8.36306       -21.59551         8.12678
   N       -8.32774       -22.58238         8.71098
   H       -6.69794        -2.47882        -9.50800
   H       -6.32940        -6.91414        -7.32491
   H       -8.60920        -1.91631        -8.09548
   H       -8.28519        -6.37108        -5.87845
   H      -13.06227        -2.47101        -4.89406
   H      -15.23741        -6.15924        -2.21018
   H      -13.00872        -6.05023        -0.78498
   H      -10.99420        -2.07297        -2.58714
   H       -8.86427        -1.87093        -1.02230
   H      -10.96385        -6.72767        -1.63913
   H       -8.99742        -6.75175         0.70470
   H      -10.09130        -8.34062        -2.94116
   H      -10.79492        -9.99731        -4.42714
   H      -11.69004       -10.88628        -3.19794
   H       -8.64539       -10.86743        -3.43558
   H       -9.71189       -12.16584        -3.98876
   H      -10.56004       -12.48286        -1.66503
   H       -8.73935       -13.05568         0.60791
   H       -7.62573       -11.17196         2.74554
   H       -6.78232       -12.11628         4.71879
   H       -7.22736       -16.67380         2.91278
   H       -7.93753       -14.78348         1.56025
   H       -5.14136       -16.63623         5.70442
   H       -6.45469       -18.55266         6.19917
   H       -8.73793       -17.01173         4.79524
   H      -12.67524       -20.22265         3.66634
   H      -11.06445       -24.91259         6.17041
   H      -14.07433       -22.25036         3.26700
   H       -9.68973       -22.94304         6.59138
*
