# ORCA input file
# SCF done       -227.210806493732          0.000638297973
! CAM-B3LYP def2-SVP def2/J RIJCOSX Grid4 TightSCF
%maxcore 5000
%tddft
    Mode sTDDFT
    Ethresh 5.0
    maxcore 5000
end

%pal
  nprocs 6
  end
* xyz 0 1
   C      -10.10066         1.34686         4.35941
   C      -11.46491         1.35135         4.44088
   F      -12.12945         2.50892         4.53783
   C      -12.18926         0.14167         4.42366
   F      -13.52501         0.17719         4.50400
   C      -11.53851        -1.05620         4.32528
   C      -10.13318        -1.09374         4.23856
   C       -9.39943         0.12840         4.25671
   C       -7.98871         0.11517         4.17095
   C       -7.33152        -1.08346         4.07120
   C       -8.07294        -2.29817         4.04818
   C       -9.43598        -2.31689         4.12844
   C       -7.14986        -3.43866         3.90365
   O       -7.44984        -4.60506         3.78037
   C       -5.78759        -2.84125         3.83328
   C       -5.91082        -1.40136         3.97250
   C       -4.87923        -0.50677         4.07529
   C       -3.51069        -0.85334         4.06593
   N       -2.38323        -1.06731         4.08685
   C       -5.05416         0.88420         4.23831
   N       -5.13734         2.02113         4.36960
   C       -4.67032        -3.54422         3.49765
   C       -4.55139        -4.96095         3.48543
   C       -3.76528        -5.68446         2.61691
   C       -3.90972        -7.07601         2.90466
   C       -4.81933        -7.16214         4.05695
   C       -5.20228        -5.90222         4.39218
   C       -5.28671        -8.32737         4.68066
   N       -5.72202        -9.25480         5.19826
   C       -3.32407        -8.13150         2.24036
   C       -3.36254        -9.50348         2.60121
   C       -2.70903       -10.25093         1.63478
   C       -2.22149        -9.32752         0.61952
   C       -2.55675        -8.06208         0.98455
   C       -2.24447        -6.91280         0.24899
   N       -1.97074        -5.99256        -0.38119
   C       -2.56697       -11.65826         1.71324
   N       -2.28235       -12.53542         0.69910
   C       -2.07646       -12.25105        -0.70203
   C       -0.59669       -12.05642        -1.02423
   C       -2.25626       -13.87413         1.14964
   O       -2.03833       -14.82338         0.42985
   C       -2.53957       -13.77327         2.56462
   C       -2.73009       -12.42122         2.88265
   C       -2.95962       -12.33784         4.31350
   O       -3.12453       -11.40181         5.06002
   N       -2.93996       -13.68308         4.75373
   C       -3.12116       -13.96727         6.15722
   C       -1.79839       -14.28355         6.85119
   C       -2.68392       -14.55304         3.72331
   C       -2.59055       -15.95585         3.69233
   C       -2.75904       -16.87696         4.68939
   C       -2.66033       -18.25988         4.47593
   S       -2.27933       -18.93138         2.92638
   C       -2.36931       -20.56603         3.49798
   C       -2.67403       -20.59036         4.87672
   C       -2.85144       -19.28766         5.42873
   C       -3.18238       -19.14166         6.78191
   C       -3.33530       -20.26347         7.56822
   C       -3.66272       -20.12351         8.93750
   N       -3.92371       -19.98330        10.04382
   C       -3.16399       -21.56487         7.01440
   C       -3.32806       -22.69853         7.84615
   N       -3.45307       -23.62248         8.51099
   C       -2.84178       -21.72408         5.68456
   C       -2.05477       -21.67959         2.70230
   C       -1.95552       -21.78745         1.34375
   C       -1.13021       -22.88904         0.77258
   O       -0.70938       -23.85459         1.36567
   C       -0.89598       -22.50404        -0.63287
   C       -0.09759       -23.10127        -1.56515
   C       -0.00193       -22.52933        -2.85379
   C       -0.73338       -21.34197        -3.14953
   C       -0.62422       -20.77226        -4.43374
   C        0.17015       -21.35541        -5.38090
   C        0.89098       -22.53093        -5.08823
   C        0.80743       -23.10676        -3.85139
   F        1.66246       -23.07956        -6.03513
   F        0.27218       -20.81271        -6.60036
   C       -1.55991       -20.75060        -2.16624
   C       -1.64501       -21.32882        -0.92891
   C       -2.43015       -20.97225         0.25050
   C       -3.58112       -20.22588         0.23592
   C       -4.45845       -20.15213         1.33562
   N       -5.20132       -20.10899         2.21009
   C       -4.06052       -19.54771        -0.90309
   N       -4.48515       -18.97516        -1.80219
   H       -9.56213         2.28155         4.37496
   H      -12.10680        -1.97304         4.31280
   H       -7.46317         1.05634         4.18017
   H       -9.97334        -3.25284         4.10793
   H       -3.79349        -3.00348         3.16124
   H       -3.16123        -5.27861         1.82853
   H       -5.83762        -5.63239         5.21269
   H       -3.81903        -9.88880         3.49114
   H       -1.64855        -9.58246        -0.25061
   H       -2.67148       -11.38008        -0.98292
   H       -2.44728       -13.12176        -1.25134
   H       -0.15786       -11.26940        -0.41438
   H       -0.47830       -11.79786        -2.07282
   H       -0.05627       -12.97970        -0.83129
   H       -3.84684       -14.77566         6.27697
   H       -3.54671       -13.05674         6.58993
   H       -1.29388       -15.12646         6.38317
   H       -1.97792       -14.51615         7.89721
   H       -1.14109       -13.41931         6.79890
   H       -2.36570       -16.33101         2.69986
   H       -2.99176       -16.57116         5.69657
   H       -3.32216       -18.16473         7.21846
   H       -2.72492       -22.71582         5.27612
   H       -1.75080       -22.57274         3.24108
   H        0.45412       -23.99694        -1.32367
   H       -1.17203       -19.87496        -4.67563
   H        1.36552       -24.00610        -3.64301
   H       -2.09648       -19.84781        -2.41141
*
