# ORCA input file
# SCF done       -208.434448050449          0.000588819108
! CAM-B3LYP def2-SVP def2/J RIJCOSX Grid4 TightSCF
%maxcore 5000
%tddft
    Mode sTDDFT
    Ethresh 5.0
    maxcore 5000
end

%pal
  nprocs 6
  end
* xyz 0 1
   C       -4.96463        -0.70606        -5.35802
   N       -4.18013         0.24577        -5.93273
   C       -3.65656         0.21104        -7.27401
   C       -2.50901        -0.78687        -7.40752
   C       -3.88416         1.28675        -5.02524
   O       -3.19722         2.25119        -5.32165
   C       -4.56420         0.90334        -3.81878
   C       -5.22458        -0.34210        -4.06679
   C       -5.92962        -0.72407        -2.86033
   O       -6.61853        -1.68251        -2.58507
   N       -5.66177         0.32372        -1.96250
   C       -6.14784         0.28143        -0.60579
   C       -5.06028        -0.14876         0.37656
   C       -4.84964         1.29769        -2.51365
   C       -4.45657         2.45810        -1.81591
   C       -3.64586         3.40506        -2.37876
   C       -3.20983         4.60812        -1.80349
   S       -2.51510         5.78012        -2.87989
   C       -2.40572         7.00619        -1.65697
   C       -2.79592         6.47937        -0.40315
   C       -3.24833         5.12546        -0.48393
   C       -3.60995         4.45303         0.68695
   C       -3.56221         5.09654         1.90954
   O       -3.94855         4.35549         2.98059
   C       -3.93354         4.94399         4.26005
   C       -3.10310         6.42461         1.98573
   C       -2.71274         7.09373         0.85595
   C       -2.00088         8.29020        -2.06299
   C       -2.20722         9.44906        -1.36515
   C       -1.85059        10.77225        -1.67560
   N       -1.10232        11.30083        -2.71172
   C       -0.48157        10.60986        -3.81477
   C       -1.46924        10.34258        -4.94916
   C       -1.00486        12.69737        -2.62472
   O       -0.37872        13.37234        -3.43009
   C       -1.74674        13.05120        -1.44019
   C       -2.23729        11.85682        -0.87984
   C       -2.97407        12.17754         0.31985
   O       -3.55158        11.48070         1.13248
   N       -2.90161        13.57723         0.40002
   C       -3.49070        14.29741         1.50089
   C       -2.44643        14.71545         2.53380
   C       -2.17320        14.12423        -0.63762
   C       -1.95822        15.49500        -0.82093
   C       -1.20122        15.96019        -1.86828
   C       -0.92824        17.29276        -2.15653
   S       -1.55665        18.62568        -1.22728
   C       -0.75669        19.81234        -2.21847
   C       -0.01589        19.18379        -3.24315
   C       -0.11825        17.76848        -3.21710
   C        0.54098        16.98327        -4.17191
   C        1.29758        17.61010        -5.13888
   O        1.98143        16.97213        -6.11696
   C        1.92611        15.56395        -6.16637
   C        1.40384        19.02373        -5.15954
   C        0.76475        19.80123        -4.23831
   C       -0.87139        21.18643        -1.99654
   C       -1.65106        21.76724        -1.03256
   C       -1.71938        23.16217        -0.87203
   N       -2.51255        23.79657         0.06265
   C       -3.36037        23.15928         1.03916
   C       -2.56351        22.62832         2.22865
   C       -2.38994        25.19257         0.00536
   O       -3.00039        25.94707         0.73807
   C       -1.44272        25.42636        -1.06253
   C       -1.05156        24.16307        -1.58245
   C       -0.11092        24.39492        -2.64584
   O        0.49097        23.63899        -3.39310
   N        0.01065        25.79353        -2.70638
   C        0.92846        26.41894        -3.62566
   C        2.22802        26.83146        -2.93759
   C       -0.77544        26.41962        -1.76629
   C       -0.85067        27.84364        -1.62085
   C       -1.60556        28.44144        -0.69583
   H       -5.28837        -1.56700        -5.91259
   H       -3.29952         1.22175        -7.49042
   H       -4.46309        -0.04210        -7.96931
   H       -1.70143        -0.51888        -6.73079
   H       -2.12883        -0.77954        -8.42528
   H       -2.84514        -1.79309        -7.16680
   H       -6.95760        -0.45390        -0.59998
   H       -6.55861         1.25721        -0.32947
   H       -4.70841        -1.14599         0.12414
   H       -5.45963        -0.16516         1.38701
   H       -4.21321         0.53312         0.34482
   H       -4.85753         2.60011        -0.82654
   H       -3.33337         3.24553        -3.40421
   H       -3.89714         3.41691         0.68024
   H       -4.30543         4.17744         4.93800
   H       -4.58975         5.81831         4.30876
   H       -2.92038         5.22924         4.56021
   H       -3.02852         6.92347         2.93827
   H       -2.31194         8.08818         0.95294
   H       -1.56084         8.32300        -3.04845
   H       -2.77804         9.39878        -0.44915
   H       -0.02314         9.68595        -3.45455
   H        0.30932        11.27362        -4.17869
   H       -2.32527         9.77022        -4.59890
   H       -0.97822         9.79036        -5.74598
   H       -1.82991        11.28672        -5.35009
   H       -4.20712        13.61041         1.96053
   H       -4.03096        15.16973         1.12123
   H       -1.94666        13.83560         2.93158
   H       -2.92772        15.24282         3.35294
   H       -1.69791        15.36676         2.08815
   H       -2.39828        16.19873        -0.12826
   H       -0.76679        15.23000        -2.53658
   H        0.44212        15.91149        -4.13566
   H        2.54490        15.27503        -7.01419
   H        0.90339        15.20847        -6.32189
   H        2.32574        15.11494        -5.25252
   H        2.01016        19.46313        -5.93553
   H        0.85512        20.87549        -4.26770
   H       -0.29747        21.82798        -2.65104
   H       -2.24034        21.13748        -0.38028
   H       -3.92748        22.35513         0.56114
   H       -4.05840        23.92895         1.38101
   H       -1.83098        21.89042         1.90902
   H       -3.23618        22.16721         2.94676
   H       -2.04015        23.44654         2.71711
   H        0.44814        27.27980        -4.09941
   H        1.14281        25.66936        -4.39302
   H        2.03695        27.54694        -2.14074
   H        2.90213        27.28252        -3.66069
   H        2.71188        25.95759        -2.50811
   H       -0.26182        28.43606        -2.30787
   H       -2.19876        27.87290         0.00039
   H       -1.64174        29.51413        -0.61469
*
