# ORCA input file
# SCF done       -205.021273366841          0.000832762850
! CAM-B3LYP def2-SVP def2/J RIJCOSX Grid4 TightSCF
%maxcore 5000
%tddft
    Mode sTDDFT
    Ethresh 5.0
    maxcore 5000
end

%pal
  nprocs 6
  end
* xyz 0 1
   C        4.70266         1.97463        -0.45895
   S        5.74727         0.75008         0.10204
   C        4.56254         0.17650         1.24241
   C        3.42362         0.95350         1.18755
   C        3.50134         1.97802         0.20162
   C        2.47954         2.90196        -0.10682
   N        1.66940         3.65647        -0.39706
   C        2.26022         0.82329         2.11957
   F        2.64603         0.45323         3.35823
   F        1.59655         1.97274         2.27264
   F        1.36117        -0.08982         1.71849
   C        4.88351        -0.96429         2.04771
   C        3.99361        -1.89079         2.46316
   C        4.32140        -3.01610         3.27444
   C        3.74497        -4.27456         3.20911
   N        2.70223        -4.69787         2.36204
   O        2.25984        -5.81809         2.54156
   O        2.30959        -3.93259         1.49732
   C        4.41488        -5.16169         4.12366
   C        5.43048        -4.48490         4.71312
   C        5.40632        -3.11667         4.25820
   C        6.13413        -2.07222         4.79194
   C        5.68787        -0.72077         4.94964
   C        6.55604        -0.06359         5.76813
   C        7.63820        -0.94035         6.09846
   N        8.76923        -0.52123         6.82446
   O        8.69845         0.55542         7.38986
   O        9.75425        -1.24070         6.83346
   C        7.42179        -2.18607         5.51282
   C        8.29685        -3.28625         5.53339
   C        8.37091        -4.25235         4.56549
   C        9.21246        -5.37317         4.67864
   N        9.45600        -6.26826         3.66140
   C        8.96143        -6.18063         2.30820
   C        9.71176        -5.12923         1.49531
   C       10.33036        -7.29088         4.05441
   O       10.69489        -8.18722         3.31935
   C       10.61955        -7.00172         5.44542
   C        9.92182        -5.82960         5.79771
   C       10.16628        -5.56569         7.20206
   O        9.75503        -4.71225         7.95411
   N       11.04521        -6.59775         7.59745
   C       11.50388        -6.69418         8.96334
   C       10.69262        -7.71059         9.76290
   C       11.31159        -7.46537         6.57399
   C       12.14590        -8.60539         6.70404
   C       12.37790        -9.45288         5.67274
   C       13.20364       -10.63000         5.71941
   C       13.77029       -11.12714         6.89490
   C       14.55513       -12.26536         6.87911
   N       15.01488       -12.75995         8.15465
   O       15.04583       -11.97244         9.07502
   O       15.31245       -13.93225         8.23627
   C       14.83694       -12.95702         5.68668
   C       14.24741       -12.45908         4.51676
   C       13.44993       -11.33912         4.53098
   C       15.73751       -14.08741         5.64316
   C       15.56227       -15.14507         4.82999
   C       16.43835       -16.27147         4.74889
   S       15.87669       -17.72218         3.98585
   C       17.37417       -18.54963         4.26554
   C       18.25507       -17.73521         4.94255
   C       17.73873       -16.43637         5.20590
   C       18.49620       -15.39688         5.77926
   N       19.11989       -14.52850         6.19310
   C       19.60804       -18.16782         5.41629
   F       19.62114       -19.44359         5.83744
   F       20.54447       -18.08071         4.44871
   F       20.05775       -17.43854         6.44040
   C       17.50162       -19.90079         3.76637
   C       18.62042       -20.46866         3.32963
   H        5.00782         2.63897        -1.24311
   H        5.93732        -1.09713         2.25629
   H        2.97343        -1.86323         2.10302
   H        4.12184        -6.18212         4.28018
   H        6.07231        -4.85004         5.49044
   H        4.75207        -0.34367         4.58786
   H        6.47954         0.94603         6.12526
   H        9.00598        -3.31314         6.35385
   H        7.79196        -4.14485         3.65855
   H        7.88841        -5.96834         2.32622
   H        9.11657        -7.16817         1.86521
   H        9.61533        -4.14415         1.94645
   H        9.31370        -5.09326         0.48529
   H       10.76754        -5.38311         1.44344
   H       11.37242        -5.69941         9.39755
   H       12.56762        -6.94480         8.97494
   H        9.64693        -7.41445         9.78806
   H       11.06459        -7.75402        10.78238
   H       10.76110        -8.70309         9.32270
   H       12.60319        -8.77070         7.66799
   H       11.91889        -9.24276         4.71522
   H       13.59289       -10.65571         7.84934
   H       14.45407       -12.95770         3.58247
   H       13.01004       -10.98015         3.61251
   H       16.57782       -14.07253         6.32148
   H       14.66651       -15.22000         4.22628
   H       16.56445       -20.43978         3.70910
   H       19.56839       -19.96163         3.30920
   H       18.61338       -21.47913         2.96126
*
