# ORCA input file
# SCF done       -206.686890222061          0.000617089127
! CAM-B3LYP def2-SVP def2/J RIJCOSX Grid4 TightSCF
%maxcore 5000
%tddft
    Mode sTDDFT
    Ethresh 5.0
    maxcore 5000
end

%pal
  nprocs 6
  end
* xyz 0 1
   C        6.92496        -6.72569        -6.90728
   O        7.91453        -6.39720        -6.08007
   C        7.79538        -5.09049        -5.77122
   C        6.68681        -4.56813        -6.42125
   C        6.11801        -5.64192        -7.16426
   C        4.97874        -5.62193        -7.99090
   N        4.05548        -5.62235        -8.66678
   C        6.20883        -3.16494        -6.31146
   F        5.91487        -2.83649        -5.03493
   F        7.14835        -2.27817        -6.70002
   F        5.11981        -2.91669        -7.03587
   C        8.71134        -4.44039        -4.89305
   C        9.75008        -5.07869        -4.30390
   C       10.68321        -4.46071        -3.42995
   C       12.00958        -4.82709        -3.24544
   N       12.68450        -5.94702        -3.76765
   O       12.06583        -6.73460        -4.46508
   O       13.86154        -6.07084        -3.48001
   C       12.67327        -3.83543        -2.44355
   C       11.79054        -2.84463        -2.15874
   C       10.50475        -3.19874        -2.69334
   C        9.30899        -2.58095        -2.38357
   C        8.03812        -3.21346        -2.21796
   C        7.18602        -2.32621        -1.63803
   C        7.84916        -1.06555        -1.46737
   N        7.15305         0.01775        -0.90465
   O        7.77000         1.01543        -0.55606
   O        5.94945        -0.10591        -0.76740
   C        9.15951        -1.17065        -1.95244
   C       10.15630        -0.23970        -2.29341
   C       10.24765         1.08571        -1.95145
   C       11.31343         1.88402        -2.40014
   N       11.47327         3.20468        -2.05427
   C       10.61225         3.97031        -1.18102
   C       10.87210         3.65972         0.28999
   C       12.62700         3.76435        -2.61444
   O       12.97475         4.91624        -2.44640
   C       13.21640         2.68223        -3.38255
   C       12.39297         1.54865        -3.23749
   C       12.98181         0.47077        -4.00557
   O       12.64287        -0.68161        -4.18856
   N       14.14604         1.03272        -4.56023
   C       14.98918         0.26798        -5.44904
   C       14.72080         0.60483        -6.91348
   C       14.29897         2.34840        -4.20756
   C       15.38941         3.15402        -4.62253
   C       15.50779         4.45325        -4.25507
   C       16.58480         5.33648        -4.61177
   C       17.59029         5.00020        -5.52346
   C       18.61106         5.88493        -5.81303
   N       19.50529         5.49878        -6.88345
   O       19.77544         4.32218        -6.97423
   O       19.87754         6.36315        -7.64473
   C       18.70623         7.13723        -5.18224
   C       17.66290         7.48657        -4.31505
   C       16.63292         6.61806        -4.03856
   C       19.82922         8.03649        -5.33372
   C       21.11493         7.65353        -5.43746
   C       22.19925         8.57267        -5.55481
   O       21.99662         9.90193        -5.63032
   C       23.18928        10.51437        -5.74492
   C       24.19823         9.56740        -5.74110
   C       23.56352         8.30361        -5.61748
   C       24.14853         7.02895        -5.55370
   N       24.59487         5.97667        -5.48256
   C       25.65582         9.84924        -5.83836
   F       25.96450        10.53657        -6.95495
   F       26.08772        10.61112        -4.81206
   F       26.40586         8.74785        -5.84161
   C       23.27629        11.94768        -5.84786
   C       22.21219        12.74669        -5.85798
   H        6.87091        -7.73699        -7.25982
   H        8.54351        -3.38506        -4.73987
   H        9.94880        -6.11075        -4.56447
   H       13.70122        -3.90738        -2.14354
   H       11.97359        -2.00369        -1.51948
   H        7.84029        -4.24947        -2.40946
   H        6.17128        -2.50067        -1.33396
   H       10.93982        -0.63954        -2.92334
   H        9.50560         1.53325        -1.30932
   H        9.56839         3.77327        -1.43540
   H       10.83643         5.02144        -1.38161
   H       10.64389         2.62106         0.51504
   H       10.24347         4.29228         0.90956
   H       11.91333         3.85379         0.53702
   H       14.74821        -0.78258        -5.26514
   H       16.03853         0.43705        -5.19379
   H       13.68549         0.38499        -7.16210
   H       15.36477         0.00542        -7.55038
   H       14.90884         1.65694        -7.11615
   H       16.14079         2.68326        -5.23874
   H       14.74245         4.88414        -3.62243
   H       17.57945         4.05621        -6.04648
   H       17.69293         8.45313        -3.83541
   H       15.84780         6.91233        -3.35854
   H       19.60212         9.09254        -5.28088
   H       21.40944         6.61334        -5.41858
   H       24.27815        12.34379        -5.92056
   H       21.21246        12.35245        -5.79038
   H       22.31490        13.81363        -5.93766
*
