# ORCA input file
# SCF done       -195.028498964881          0.000421615047
! CAM-B3LYP def2-SVP def2/J RIJCOSX Grid4 TightSCF
%maxcore 5000
%tddft
    Mode sTDDFT
    Ethresh 5.0
    maxcore 5000
end

%pal
  nprocs 6
  end
* xyz 0 1
   C        0.21960         0.28285         6.62315
   N        0.08129         0.16157         5.33388
   N       -0.41456        -0.89225         4.75951
   C       -0.75880        -1.98109         5.41239
   C       -0.60091        -1.99089         6.82626
   C       -0.13430        -0.79411         7.46104
   N       -0.06725        -0.92832         8.78583
   S       -0.53516        -2.41302         9.17015
   N       -0.83105        -2.96767         7.69925
   C       -1.34358        -3.12896         4.75046
   C       -2.49681        -3.75919         5.17786
   N       -3.39524        -3.30032         6.15849
   O       -3.27479        -2.15291         6.56127
   O       -4.25190        -4.07303         6.54214
   C       -2.70810        -4.95875         4.40904
   C       -1.66780        -5.09722         3.55619
   C       -0.77188        -3.97219         3.71023
   C        0.36497        -3.73443         2.95546
   C        0.87948        -2.45589         2.59342
   C        1.76208        -2.61160         1.55905
   C        1.91601        -3.99989         1.28104
   N        2.81563        -4.48858         0.32010
   O        2.92780        -5.69974         0.18001
   O        3.43384        -3.66992        -0.33645
   C        1.11300        -4.73766         2.16904
   C        1.18516        -6.11815         2.37960
   C        0.76427        -6.74692         3.53054
   C        0.76370        -8.10687         3.85051
   N        1.17536        -9.21782         3.15353
   C        1.73749        -9.29041         1.82235
   C        0.66524        -9.15537         0.74511
   C        0.94915       -10.40010         3.87856
   O        1.23818       -11.50569         3.46806
   C        0.34621        -9.96361         5.12887
   C        0.25504        -8.57580         5.08227
   C       -0.35686        -8.10334         6.31402
   O       -0.61392        -6.98807         6.70598
   N       -0.59899        -9.28138         7.04141
   C       -1.26010        -9.24719         8.32692
   C       -2.73511        -9.62028         8.21596
   C       -0.19086       -10.40429         6.36671
   C       -0.28116       -11.70220         6.87802
   C        0.21368       -12.77868         6.17549
   C        0.22082       -14.13414         6.52946
   C       -0.51889       -14.91337         7.44005
   N       -1.38896       -14.54543         8.47955
   O       -1.40618       -13.38687         8.87231
   O       -2.08158       -15.42518         8.96045
   C       -0.30955       -16.29413         7.14270
   C        0.53884       -16.40908         6.07985
   C        0.95039       -15.10297         5.68524
   C        1.98974       -14.78829         4.82493
   C        2.87768       -13.67227         4.96187
   C        3.92254       -13.82980         4.10502
   C        3.70786       -15.02107         3.33602
   N        4.58419       -15.42483         2.31144
   O        4.28766       -16.39068         1.62625
   O        5.61130       -14.78373         2.17490
   C        2.52470       -15.62955         3.74450
   C        1.90522       -16.74562         3.12709
   C        0.57152       -16.98512         3.09630
   C       -0.00923       -18.10898         2.42759
   N       -1.33189       -18.16080         2.36115
   N       -1.98925       -19.09581         1.75941
   C       -1.41888       -20.09129         1.13591
   C       -0.01230       -20.18673         1.12854
   C        0.72945       -19.16615         1.81520
   N        2.03956       -19.38690         1.76055
   S        2.30777       -20.72447         0.91448
   N        0.78574       -21.10656         0.58562
   H        0.61401         1.21289         7.00001
   H       -3.56724        -5.59093         4.52086
   H       -1.55201        -5.85797         2.80950
   H        0.52407        -1.52686         2.99724
   H        2.27728        -1.83616         1.02384
   H        1.68880        -6.67430         1.60304
   H        0.38581        -6.13406         4.33905
   H        2.20284       -10.27748         1.74790
   H        2.51453        -8.53237         1.70761
   H       -0.03571        -9.98418         0.81004
   H        1.13373        -9.16988        -0.23428
   H        0.11296        -8.22471         0.85084
   H       -1.16517        -8.21927         8.68684
   H       -0.74586        -9.91847         9.01870
   H       -3.24450        -8.94204         7.53566
   H       -3.20125        -9.54530         9.19372
   H       -2.85300       -10.63899         7.85564
   H       -0.71928       -11.84662         7.85293
   H        0.66237       -12.56995         5.21270
   H       -0.76162       -17.09107         7.70285
   H        0.92715       -17.32310         5.67585
   H        2.79242       -12.91283         5.71399
   H        4.77990       -13.19446         3.99006
   H        2.56198       -17.40282         2.56775
   H       -0.14032       -16.29577         3.52765
   H       -2.05538       -20.81285         0.64985
*
