# ORCA input file
# SCF done       -151.502181384726          0.000524051436
! CAM-B3LYP def2-SVP def2/J RIJCOSX Grid4 TightSCF
%maxcore 5000
%tddft
    Mode sTDDFT
    Ethresh 5.0
    maxcore 5000
end

%pal
  nprocs 6
  end
* xyz 0 1
   C        0.33754         1.30462         8.50665
   N        1.59525         0.93044         8.39268
   C        1.77969        -0.30772         7.93686
   N        0.79380        -1.11010         7.53934
   C       -0.42083        -0.61911         7.68799
   N       -0.71448         0.57056         8.18316
   C        3.14744        -0.81211         7.87729
   C        3.96015        -1.02167         8.95953
   N        3.61652        -0.81052        10.31465
   O        4.52280        -0.80377        11.12437
   O        2.43945        -0.66761        10.58732
   C        5.22625        -1.57027         8.51922
   C        5.15626        -1.76261         7.18488
   C        3.86616        -1.30479         6.70913
   C        3.40534        -1.24887         5.41328
   C        2.42989        -0.33402         4.91033
   C        2.42914        -0.40531         3.55337
   C        3.35922        -1.41256         3.12494
   N        3.50046        -1.68373         1.75409
   O        2.65407        -1.22280         1.00804
   O        4.45712        -2.33771         1.36062
   C        3.94870        -1.99785         4.25350
   C        4.68730        -3.17501         4.46252
   C        5.34660        -3.93987         3.53258
   C        6.02137        -5.11917         3.88632
   N        6.72333        -5.89003         2.98970
   C        6.90700        -5.61310         1.58265
   C        7.96695        -4.54121         1.34746
   C        7.31676        -7.00193         3.59614
   O        7.98622        -7.82473         3.00399
   C        6.92931        -6.90065         4.99200
   C        6.13793        -5.74728         5.14034
   C        5.75426        -5.64645         6.53454
   O        5.08936        -4.83118         7.14021
   N        6.35670        -6.76192         7.14364
   C        6.15643        -7.03934         8.54632
   C        5.08906        -8.10826         8.76568
   C        7.05667        -7.52457         6.24308
   C        7.77215        -8.69302         6.58410
   C        8.47150        -9.40897         5.65989
   C        9.22962       -10.57108         5.93870
   S       10.12009       -11.32844         4.64331
   C       10.74133       -12.54623         5.70200
   C       10.25889       -12.35957         7.00191
   C        9.41355       -11.25161         7.12965
   C       10.59543       -13.20512         8.07587
   N       10.85467       -13.88224         8.96347
   C       11.62750       -13.57318         5.27936
   C       12.08042       -13.71881         4.01837
   C       12.99198       -14.77282         3.64306
   N       13.41425       -15.63241         4.57734
   C       14.24929       -16.55757         4.15606
   N       14.68570       -16.69416         2.91285
   C       14.20873       -15.79904         2.06209
   N       13.37179       -14.82791         2.36240
   H        0.15311         2.30073         8.88869
   H       -1.24584        -1.24730         7.37545
   H        6.04366        -1.77643         9.18243
   H        5.95130        -2.10051         6.55078
   H        1.88190         0.36862         5.50563
   H        1.84984         0.18447         2.86757
   H        4.70977        -3.51354         5.48958
   H        5.37213        -3.62981         2.49965
   H        5.95344        -5.31172         1.14317
   H        7.22773        -6.55490         1.12936
   H        7.66716        -3.59347         1.78728
   H        8.10435        -4.39719         0.28001
   H        8.91514        -4.84790         1.78288
   H        5.82917        -6.09840         8.99704
   H        7.10657        -7.33456         8.99945
   H        4.13991        -7.77454         8.35396
   H        4.96110        -8.28555         9.82964
   H        5.36514        -9.04395         8.28418
   H        7.76258        -9.00528         7.61774
   H        8.46896        -9.07820         4.62888
   H        8.95824       -10.96874         8.06157
   H       11.95547       -14.27479         6.03646
   H       11.78591       -13.05030         3.22184
   H       14.61061       -17.26813         4.88934
   H       14.53487       -15.87077         1.03173
*
