# ORCA input file
# SCF done       -213.989939112707          0.000481913336
! CAM-B3LYP def2-SVP def2/J RIJCOSX Grid4 TightSCF
%maxcore 5000
%tddft
    Mode sTDDFT
    Ethresh 5.0
    maxcore 5000
end

%pal
  nprocs 6
  end
* xyz 0 1
   C        2.75510         4.67496         2.66158
   C        2.50294         6.00721         2.48704
   C        2.49761         6.94684         3.54126
   N        2.48132         7.75452         4.35586
   C        2.29406         6.62587         1.23858
   N        2.16024         7.20580         0.25558
   C        3.16888         4.03095         3.89801
   C        3.73213         2.75579         3.58991
   C        4.22017         1.93291         4.56457
   C        4.16250         2.35148         5.91237
   C        3.58867         3.61812         6.22788
   C        3.09219         4.45044         5.19976
   C        3.52986         4.01857         7.57864
   C        4.01469         3.21029         8.57043
   C        4.57953         1.96419         8.25867
   C        4.65234         1.54434         6.95823
   C        3.64936         2.52007         2.14181
   O        4.07957         1.59587         1.49393
   C        2.84565         3.66692         1.61598
   C        2.21309         3.55425         0.43310
   C        1.15983         4.38247        -0.08769
   C       -0.02742         4.73762         0.52849
   N       -0.50694         4.35435         1.79283
   O       -1.66523         4.62252         2.05554
   O        0.25213         3.78562         2.56705
   C       -0.81945         5.53382        -0.37898
   C       -0.09322         5.74647        -1.50043
   C        1.16563         5.05606        -1.38538
   C        2.21846         5.10566        -2.28226
   C        3.24179         4.14513        -2.49434
   C        3.91404         4.46835        -3.63878
   C        3.40946         5.69361        -4.16985
   N        3.97585         6.22782        -5.33110
   O        4.99872         5.70701        -5.74500
   O        3.43288         7.16930        -5.90515
   C        2.39632         6.16654        -3.30803
   C        1.82974         7.42559        -3.10945
   C        1.91908         8.51979        -3.94539
   C        1.38968         9.76878        -3.66006
   S        0.47658        10.18687        -2.21963
   C        0.25265        11.85573        -2.69627
   C        0.87225        12.08462        -3.94516
   C        1.48643        10.91673        -4.46273
   N        2.04284        11.20539        -5.65845
   C        1.79899        12.53130        -5.93277
   C        2.24469        13.15086        -7.11000
   N        2.60038        13.67301        -8.06683
   C        1.07857        13.10386        -4.89912
   C       -0.46502        12.70730        -1.85442
   C       -0.60346        14.06029        -2.03865
   C       -1.34261        14.90485        -1.19148
   C       -2.15651        14.57309        -0.11728
   C       -2.68400        15.75776         0.45318
   C       -2.14514        16.87788        -0.34571
   C       -1.36624        16.35645        -1.32597
   C       -2.41940        18.24225        -0.18245
   N       -2.62780        19.36866        -0.10573
   C       -3.52494        15.86302         1.54088
   C       -3.92067        17.05717         2.20927
   C       -4.73352        16.72846         3.27242
   C       -4.91754        15.28111         3.26368
   C       -4.17364        14.75097         2.25880
   C       -4.07709        13.39144         1.94323
   N       -4.00581        12.27231         1.69348
   C       -5.36403        17.57132         4.22433
   C       -4.93244        18.78663         4.66563
   C       -5.65405        19.65533         5.57944
   C       -7.00112        19.61768         5.82984
   C       -7.66559        20.50479         6.70257
   N       -8.25915        21.19172         7.40483
   C       -7.90592        18.71830         5.22705
   N       -8.69821        18.02823         4.76410
   C       -4.71255        20.63139         6.10926
   C       -3.45302        20.43389         5.47474
   C       -3.54312        19.31666         4.52000
   O       -2.64832        18.88584         3.82861
   C       -2.36728        21.20751         5.76975
   C       -2.49415        22.23232         6.73361
   C       -3.74921        22.43120         7.37933
   C       -4.85636        21.61553         7.05153
   C       -3.86099        23.45117         8.34605
   C       -2.78667        24.23836         8.66041
   C       -1.55222        24.04272         8.02308
   C       -1.40929        23.06187         7.07937
   H        4.64159         0.97142         4.31112
   H        2.64548         5.39543         5.46659
   H        3.09528         4.97891         7.81373
   H        3.96527         3.52607         9.60170
   H        4.95531         1.33838         9.05423
   H        5.08515         0.58567         6.71253
   H        2.49129         2.69070        -0.16287
   H       -1.81087         5.87478        -0.15184
   H       -0.42356         6.26544        -2.37867
   H        3.40408         3.25752        -1.91807
   H        4.70578         3.90976        -4.10279
   H        1.31271         7.56529        -2.16890
   H        2.42323         8.41531        -4.89689
   H        2.54480        10.56739        -6.25678
   H        0.75429        14.12404        -4.87259
   H       -0.91797        12.24974        -0.98573
   H       -0.09618        14.53042        -2.86843
   H       -2.36037        13.58520         0.24422
   H       -0.83865        16.90733        -2.08300
   H       -3.62720        18.04361         1.91427
   H       -5.52687        14.74024         3.96439
   H       -6.26340        17.15817         4.66832
   H       -1.42394        21.03922         5.27188
   H       -5.79092        21.78495         7.56260
   H       -4.81371        23.59940         8.83282
   H       -2.88237        25.01683         9.40232
   H       -0.71507        24.67267         8.28400
   H       -0.46154        22.90639         6.58513
*
