# ORCA input file
# SCF done       -211.633940853902          0.000730719886
! CAM-B3LYP def2-SVP def2/J RIJCOSX Grid4 TightSCF
%maxcore 5000
%tddft
    Mode sTDDFT
    Ethresh 5.0
    maxcore 5000
end

%pal
  nprocs 6
  end
* xyz 0 1
   C       -3.54075         3.00577        -2.65891
   C       -3.43241         1.64030        -2.67699
   C       -4.42939         0.77870        -3.18303
   N       -5.19760         0.02453        -3.58158
   C       -2.33291         0.89112        -2.20531
   N       -1.48794         0.20237        -1.84496
   C       -4.68516         3.77121        -3.14660
   C       -4.42330         5.15833        -2.94869
   C       -5.31762         6.12567        -3.30760
   C       -6.54372         5.74281        -3.89477
   C       -6.81527         4.35885        -4.09867
   C       -5.86791         3.38043        -3.71576
   C       -8.04151         3.98828        -4.68633
   C       -8.95647         4.93727        -5.05504
   C       -8.68793         6.29917        -4.85343
   C       -7.50679         6.69366        -4.28531
   C       -3.10399         5.31122        -2.32968
   O       -2.55107         6.36012        -2.03541
   C       -2.56602         3.95660        -2.15458
   C       -1.33628         3.67583        -1.62058
   C       -0.38568         4.55917        -1.08845
   S       -0.46164         6.28528        -0.93276
   C        1.11086         6.37246        -0.21193
   C        1.67793         5.10703        -0.04581
   C        0.83759         4.07338        -0.56711
   N        1.19042         2.78517        -0.53583
   C        2.33758         2.51128         0.03122
   N        3.12392         3.36403         0.68761
   C        2.79912         4.64088         0.68593
   C        3.53032         5.52925         1.52260
   N        4.06482         6.26696         2.21679
   C        1.62217         7.66231         0.11683
   N        2.87028         8.14567        -0.17356
   C        3.86933         7.52259        -1.00817
   C        3.40702         7.41406        -2.45855
   C        3.00150         9.50354         0.22185
   O        3.99543        10.16330         0.02124
   C        1.73125         9.81457         0.83700
   C        0.90293         8.67803         0.73409
   C       -0.35412         8.98110         1.38538
   O       -1.34965         8.31899         1.57306
   N       -0.21285        10.32198         1.80718
   C       -1.27809        10.93177         2.56807
   C       -0.92797        11.04811         4.04904
   C        1.02450        10.83412         1.48416
   C        1.55528        12.13403         1.64287
   C        0.95394        13.26202         2.11585
   C        1.54894        14.54411         2.11418
   C        0.90863        15.70665         2.50275
   C        1.76983        16.81459         2.29314
   C        3.03007        16.25229         1.76712
   C        2.88739        14.90594         1.66389
   C        4.18620        16.96764         1.43279
   N        5.14710        17.53036         1.15195
   C        1.47677        18.14913         2.47966
   C        2.29134        19.27466         2.17929
   C        1.58609        20.43411         2.44274
   C        0.27666        20.04947         2.95552
   C        0.20109        18.69400         2.98383
   C       -0.90800        17.96463         3.42669
   N       -1.83383        17.39246         3.79507
   C        2.04118        21.75504         2.22270
   C        1.28279        22.87054         2.42271
   C        1.76614        24.16791         2.15029
   C        1.02925        25.31179         2.29556
   C        1.45937        26.66908         2.01496
   C        2.69702        27.06882         1.57878
   C        3.05037        28.41101         1.32448
   N        3.40433        29.47875         1.09469
   C        3.79541        26.22226         1.32118
   N        4.73730        25.60666         1.09086
   C        0.33298        27.55808         2.28084
   C       -0.76956        26.77593         2.72853
   C       -0.38420        25.35655         2.76074
   O       -1.08660        24.42527         3.09727
   C       -1.97061        27.33722         3.05445
   C       -2.12945        28.73635         2.94410
   C       -1.03231        29.52728         2.49574
   C        0.19995        28.91696         2.16679
   C       -1.20151        30.92263         2.38719
   C       -2.39581        31.50978         2.70572
   C       -3.47514        30.72988         3.14734
   C       -3.34484        29.37253         3.26411
   H       -5.09235         7.16897        -3.14366
   H       -6.10667         2.34273        -3.88506
   H       -8.24478         2.93867        -4.83961
   H       -9.89298         4.64287        -5.50425
   H       -9.42101         7.03415        -5.15014
   H       -7.29387         7.74074        -4.12705
   H       -1.00952         2.64321        -1.57127
   H        2.66302         1.48090         0.01498
   H        4.13170         6.53743        -0.61542
   H        4.74990         8.16737        -0.94155
   H        2.52741         6.77845        -2.54250
   H        4.20188         6.98744        -3.06357
   H        3.16246         8.39875        -2.84964
   H       -2.13794        10.26511         2.44964
   H       -1.53671        11.90210         2.13686
   H       -0.76703        10.05814         4.46884
   H       -1.74659        11.52217         4.58330
   H       -0.02493        11.63544         4.19868
   H        2.57207        12.20474         1.27840
   H       -0.05665        13.23893         2.49353
   H       -0.09309        15.77072         2.87991
   H        3.63410        14.21881         1.31287
   H        3.28893        19.22349         1.78856
   H       -0.49545        20.72929         3.26274
   H        3.05392        21.86141         1.85187
   H        0.27054        22.78324         2.78628
   H        2.78550        24.24051         1.79303
   H       -2.78993        26.71958         3.39150
   H        1.00886        29.54548         1.83036
   H       -0.36780        31.51909         2.04685
   H       -2.51548        32.57929         2.61905
   H       -4.41023        31.20988         3.39442
   H       -4.17221        28.76660         3.60347
*
