# ORCA input file
# SCF done       -176.548842879542          0.000446835696
! CAM-B3LYP def2-SVP def2/J RIJCOSX Grid4 TightSCF
%maxcore 5000
%tddft
    Mode sTDDFT
    Ethresh 5.0
    maxcore 5000
end

%pal
  nprocs 6
  end
* xyz 0 1
   C       -3.48901         5.02349        -2.61654
   C       -3.60693         3.66797        -2.78675
   C       -4.82802         2.99327        -2.97699
   N       -5.80041         2.40201        -3.12283
   C       -2.46199         2.86064        -2.90164
   N       -1.50005         2.24992        -3.05362
   C       -4.53585         6.01513        -2.80844
   C       -3.92194         7.28538        -3.02637
   C       -4.66392         8.40210        -3.28350
   C       -6.07314         8.29953        -3.32069
   C       -6.69117         7.03644        -3.08575
   C       -5.89854         5.89329        -2.83264
   C       -8.09778         6.95251        -3.11822
   C       -8.85967         8.06016        -3.37415
   C       -8.25067         9.30195        -3.60853
   C       -6.88723         9.41895        -3.58256
   C       -2.46044         7.14552        -2.91722
   O       -1.60192         7.97623        -3.10867
   C       -2.24086         5.73806        -2.46815
   C       -1.04294         5.38546        -1.93334
   C       -0.71063         4.27816        -1.09777
   C        0.61669         3.82601        -0.94624
   N        1.04285         3.04152         0.07981
   C        0.22419         2.50758         0.91900
   C       -1.17075         2.72542         0.78172
   C       -1.63465         3.64944        -0.22516
   N       -2.94437         3.74656        -0.08536
   O       -3.26810         2.93053         0.92589
   N       -2.22265         2.31582         1.45679
   C        1.64443         4.15403        -1.87272
   S        3.30624         4.05709        -1.35864
   C        3.93846         4.52528        -2.91373
   C        2.88528         4.69109        -3.82363
   C        1.60649         4.47585        -3.22474
   N        0.66078         4.57449        -4.18880
   C        1.28924         4.84833        -5.38417
   C        0.56860         5.00653        -6.57644
   N       -0.01528         5.13938        -7.55489
   C        2.65304         4.93852        -5.19641
   C        5.33320         4.66307        -3.06899
   C        5.94764         5.13911        -4.18438
   C        7.35041         5.26174        -4.34238
   S        7.99345         5.94649        -5.80936
   C        9.63336         5.72651        -5.27946
   C        9.65243         5.15687        -4.00098
   C        8.37467         4.90258        -3.48570
   C       10.80562         4.90601        -3.23323
   N       11.69226         4.70782        -2.53388
   C       10.69322         6.11001        -6.13284
   C       12.00449         5.78516        -5.96933
   C       12.98162         6.22634        -6.89163
   C       14.28886         5.83257        -6.89261
   C       15.33784         6.29149        -7.78499
   C       15.22814         7.24646        -8.76365
   C       16.29309         7.65549        -9.59396
   N       17.11155         8.03572       -10.30369
   C       14.05772         7.96247        -9.08933
   N       13.15149         8.58815        -9.41645
   C       16.55758         5.56556        -7.44809
   C       16.28049         4.68301        -6.36534
   C       14.86411         4.80450        -5.98082
   O       14.28856         4.16997        -5.12398
   C       17.23719         3.86763        -5.83355
   C       18.54298         3.89577        -6.37185
   C       18.82923         4.77380        -7.45698
   C       17.81762         5.60792        -7.98538
   C       20.13425         4.79057        -7.99039
   C       21.11021         3.97980        -7.47819
   C       20.82716         3.11611        -6.40941
   C       19.57103         3.07534        -5.86767
   H       -4.18328         9.35345        -3.45709
   H       -6.38606         4.94786        -2.65143
   H       -8.56193         5.99368        -2.94024
   H       -9.93642         7.98514        -3.39814
   H       -8.86682        10.16547        -3.80943
   H       -6.41296        10.37267        -3.76226
   H       -0.24421         6.10808        -2.08095
   H        0.62977         1.91616         1.72586
   H       -0.32153         4.38160        -4.07719
   H        3.36691         5.13909        -5.96891
   H        5.92794         4.37627        -2.21338
   H        5.34821         5.46336        -5.02111
   H        8.21694         4.46693        -2.51564
   H       10.40294         6.67982        -7.00840
   H       12.32288         5.16641        -5.14389
   H       12.64543         6.92560        -7.64694
   H       16.99828         3.20834        -5.01233
   H       18.06792         6.25905        -8.80764
   H       20.34739         5.45733        -8.81304
   H       22.10640         3.99936        -7.89410
   H       21.60938         2.48313        -6.01781
   H       19.34677         2.41242        -5.04487
*
