# ORCA input file
# SCF done       -244.002484586627          0.000796067974
! CAM-B3LYP def2-SVP def2/J RIJCOSX Grid4 TightSCF
%maxcore 5000
%tddft
    Mode sTDDFT
    Ethresh 5.0
    maxcore 5000
end

%pal
  nprocs 6
  end
* xyz 0 1
   C       -2.98695         4.05902        -6.41489
   C       -3.44771         5.32871        -6.19021
   C       -4.80868         5.64908        -5.99373
   N       -5.89326         5.98219        -5.82341
   C       -2.63153         6.46503        -6.05778
   N       -2.03669         7.43648        -5.89970
   C       -3.77970         2.84276        -6.35336
   C       -2.90335         1.73139        -6.16664
   C       -3.38018         0.45732        -6.04805
   C       -4.77361         0.23353        -6.11852
   C       -5.65172         1.33824        -6.32454
   C       -5.13233         2.64686        -6.44087
   C       -7.03871         1.09770        -6.40483
   C       -7.53723        -0.17081        -6.28428
   C       -6.67281        -1.25673        -6.07852
   C       -5.32095        -1.05890        -5.99689
   C       -1.51035         2.20293        -6.15894
   O       -0.49650         1.57805        -5.95853
   C       -1.59665         3.65228        -6.52027
   C       -0.50797         4.29010        -7.00153
   C       -0.44959         5.53619        -7.70203
   C       -1.30262         6.03437        -8.68232
   N       -2.37197         5.39784        -9.32930
   O       -2.68896         4.26521        -8.98746
   O       -2.94540         6.02201       -10.20617
   C       -0.88163         7.36030        -9.04978
   C        0.15148         7.71650        -8.24659
   C        0.48974         6.60854        -7.39857
   C        1.49132         6.62162        -6.43510
   C        2.34059         5.57133        -6.02108
   C        3.35037         6.10194        -5.25838
   C        3.13571         7.49643        -5.07585
   N        4.04207         8.26569        -4.33017
   O        4.91606         7.66654        -3.72772
   O        3.93753         9.48428        -4.33361
   C        1.94621         7.85730        -5.73967
   C        1.04930         8.92186        -5.62334
   C        1.18303        10.07342        -4.87164
   C        0.19313        11.04111        -4.68614
   S        0.44186        12.19047        -3.40009
   C       -1.12091        12.91272        -3.65473
   C       -1.79465        12.28085        -4.72975
   C       -1.05445        11.26820        -5.31979
   C       -1.51467        10.54468        -6.54057
   C       -2.64978        11.29857        -7.24097
   C       -2.12396        12.52695        -7.97020
   O       -2.54766        13.64614        -7.85446
   O       -1.12454        12.19837        -8.79414
   C       -0.56870        13.25778        -9.56376
   C       -3.72236        11.66310        -6.22049
   C       -3.17289        12.63749        -5.17855
   C       -1.46683        13.95652        -2.78623
   C       -2.59326        14.74555        -2.83583
   C       -2.95739        15.77867        -1.95791
   C       -2.28676        16.50292        -0.95629
   N       -0.99909        16.36432        -0.41370
   O       -0.42496        15.28820        -0.46576
   O       -0.51462        17.35626         0.10779
   C       -3.10047        17.60384        -0.55039
   C       -4.24248        17.62228        -1.29442
   C       -4.22597        16.50595        -2.18034
   C       -5.25577        16.14522        -3.04083
   C       -5.74551        14.84010        -3.31909
   C       -6.93283        14.94788        -3.99345
   C       -7.19828        16.32718        -4.24467
   N       -8.30865        16.78059        -4.98165
   O       -9.08025        15.93833        -5.40274
   O       -8.44409        17.98162        -5.14256
   C       -6.17145        17.09624        -3.69871
   C       -5.89720        18.46791        -3.87734
   C       -4.62941        18.97058        -3.77967
   C       -4.31115        20.34368        -3.70651
   C       -3.07842        20.77520        -3.30315
   C       -2.67591        22.14309        -3.02976
   C       -3.27768        23.27468        -3.51414
   C       -2.83023        24.58392        -3.23828
   N       -2.51488        25.67043        -3.04580
   C       -4.39171        23.27859        -4.38047
   N       -5.28863        23.34957        -5.09279
   C       -1.49323        22.09282        -2.18010
   C       -1.09255        20.73096        -2.03858
   C       -1.97945        19.87575        -2.83296
   O       -1.84042        18.69108        -3.06198
   C       -0.04543        20.36387        -1.24070
   C        0.67236        21.36543        -0.55118
   C        0.29742        22.73208        -0.70927
   C       -0.80121        23.07953        -1.52959
   C        1.03122        23.71980        -0.02228
   C        2.08172        23.37523         0.78512
   C        2.44326        22.02919         0.94706
   C        1.75319        21.04428         0.29319
   H       -2.70322        -0.37170        -5.90439
   H       -5.81468         3.46425        -6.61494
   H       -7.70003         1.93710        -6.56096
   H       -8.60084        -0.34492        -6.34697
   H       -7.08334        -2.25102        -5.98646
   H       -4.65137        -1.89168        -5.83955
   H        0.42826         3.76036        -6.86629
   H       -1.33842         7.93019        -9.83550
   H        0.71759         8.62598        -8.30318
   H        2.29020         4.55225        -6.34922
   H        4.19384         5.57672        -4.84973
   H        0.10237         8.74669        -6.10642
   H        2.10608        10.23654        -4.32980
   H       -1.87792         9.55037        -6.26308
   H       -0.68314        10.42209        -7.23534
   H       -3.07133        10.64331        -8.01019
   H       -0.10839        14.00055        -8.90873
   H       -1.34712        13.74431       -10.15472
   H        0.17702        12.80412       -10.21139
   H       -4.06118        10.74576        -5.73609
   H       -4.57552        12.12418        -6.71790
   H       -3.84387        12.65018        -4.31772
   H       -3.15246        13.63937        -5.61625
   H       -0.75105        14.14113        -1.99563
   H       -3.29355        14.59166        -3.64031
   H       -2.81821        18.29049         0.22581
   H       -5.06685        18.29954        -1.18216
   H       -5.33813        13.93421        -2.91232
   H       -7.58399        14.15011        -4.29755
   H       -6.72777        19.11284        -4.13862
   H       -3.79890        18.28306        -3.71239
   H       -5.10651        21.06027        -3.87002
   H        0.21687        19.32445        -1.11255
   H       -1.07668        24.11932        -1.61047
   H        0.74789        24.75475        -0.14605
   H        2.63809        24.13980         1.30630
   H        3.27084        21.77703         1.59279
   H        2.01916        20.00499         0.41409
*
