# ORCA input file
# SCF done       -228.611436509120          0.000517482624
! CAM-B3LYP def2-SVP def2/J RIJCOSX Grid4 TightSCF
%maxcore 5000
%tddft
    Mode sTDDFT
    Ethresh 5.0
    maxcore 5000
end

%pal
  nprocs 6
  end
* xyz 0 1
   C        3.57654        -3.00550         6.41712
   C        4.71050        -3.64116         6.83868
   F        5.66968        -2.95651         7.47557
   C        4.88616        -5.02068         6.61014
   F        6.00873        -5.61845         7.03307
   C        3.92462        -5.74573         5.96392
   C        2.74496        -5.11952         5.51673
   C        2.56614        -3.72465         5.74742
   C        1.39049        -3.07496         5.30722
   C        0.42453        -3.79889         4.65929
   C        0.61232        -5.19015         4.42842
   C        1.73833        -5.84329         4.83929
   C       -0.54553        -5.73275         3.68692
   O       -0.65151        -6.85842         3.25115
   C       -1.45493        -4.57613         3.47811
   C       -0.86957        -3.41032         4.10970
   C       -1.47341        -2.19009         4.26081
   C       -2.78364        -1.88482         3.83254
   N       -3.85022        -1.57055         3.54726
   C       -0.87612        -1.09091         4.91229
   N       -0.43400        -0.16404         5.42514
   C       -2.53699        -4.57535         2.64934
   C       -3.22924        -5.72842         2.18543
   C       -3.87039        -5.71926         0.92804
   C       -4.54773        -6.87029         0.41654
   N       -5.10362        -6.82178        -0.80796
   C       -5.03222        -5.73088        -1.50087
   C       -4.36602        -4.58583        -0.98762
   N       -3.80220        -4.59795         0.17485
   F       -4.29757        -3.46872        -1.70182
   F       -5.59418        -5.72424        -2.70573
   C       -4.64152        -8.08940         1.14098
   C       -4.12718        -8.04903         2.45900
   C       -3.42495        -6.88858         2.96460
   N       -3.09725        -7.02950         4.24736
   S       -3.59523        -8.46432         4.75541
   N       -4.27206        -8.98010         3.39960
   C       -5.24412        -9.22804         0.56057
   S       -6.25101        -9.07742        -0.84433
   C       -6.64306       -10.75980        -0.87928
   C       -5.95294       -11.43928         0.12855
   C       -5.14915       -10.57986         0.93738
   N       -4.35658       -11.08179         1.89711
   C       -4.40532       -12.37641         2.09948
   O       -3.64329       -12.93501         3.01945
   C       -2.74745       -12.07746         3.72261
   C       -1.97257       -12.92243         4.71647
   C       -5.27792       -13.24077         1.33849
   C       -5.29746       -14.71895         1.59469
   N       -4.07364       -15.29625         1.04999
   N       -6.00079       -12.76929         0.36904
   C       -7.56862       -11.29164        -1.83882
   C       -8.02926       -12.60608        -1.73839
   C       -8.94640       -13.10054        -2.64941
   N       -9.33694       -14.47874        -2.50256
   O       -9.11012       -15.01626        -1.44015
   O       -9.86311       -15.03068        -3.44902
   C       -9.44678       -12.31015        -3.70084
   C       -8.95180       -11.00278        -3.80255
   C       -8.04480       -10.50320        -2.89954
   C      -10.47975       -12.75670        -4.61012
   C      -10.50019       -12.45659        -5.92288
   C      -11.50371       -12.90334        -6.83699
   C      -12.81755       -13.15969        -6.62051
   C      -13.57006       -13.97404        -7.62212
   O      -13.21129       -14.24802        -8.74187
   C      -14.80279       -14.39787        -6.93011
   C      -15.77645       -15.25392        -7.35856
   C      -16.87111       -15.52938        -6.50910
   C      -16.92916       -14.91854        -5.22230
   C      -18.02187       -15.20063        -4.37760
   C      -19.01263       -16.04517        -4.79263
   C      -18.95508       -16.64783        -6.06602
   C      -17.90729       -16.39685        -6.90686
   F      -19.94016       -17.47163        -6.44553
   F      -20.05196       -16.30909        -3.99118
   C      -15.90759       -14.03531        -4.80653
   C      -14.86409       -13.76972        -5.65334
   C      -13.71429       -12.88046        -5.51395
   C      -13.64140       -11.82697        -4.64311
   C      -12.63621       -10.84012        -4.67545
   N      -11.86777        -9.98783        -4.67205
   C      -14.61037       -11.55702        -3.65339
   N      -15.36034       -11.30216        -2.82313
   H        3.45718        -1.94915         6.60080
   H        4.07517        -6.80066         5.79600
   H        1.28716        -2.01708         5.48739
   H        1.85957        -6.89912         4.65023
   H       -2.90341        -3.63729         2.25179
   H       -3.32886       -11.29372         4.22148
   H       -2.07920       -11.59316         3.00212
   H       -2.65200       -13.38512         5.42683
   H       -1.26555       -12.29859         5.25506
   H       -1.43133       -13.70656         4.19449
   H       -6.21932       -15.13154         1.15673
   H       -5.29584       -14.89383         2.67349
   H       -4.07294       -15.21582         0.03840
   H       -4.01920       -16.28068         1.28452
   H       -7.66186       -13.24438        -0.94887
   H       -9.34255       -10.36570        -4.57990
   H       -7.69246        -9.48757        -2.99897
   H      -11.25109       -13.39817        -4.20469
   H       -9.65571       -11.94394        -6.36413
   H      -11.16160       -13.12668        -7.84365
   H      -15.71298       -15.71370        -8.33294
   H      -18.08284       -14.74480        -3.40172
   H      -17.87832       -16.86615        -7.87773
   H      -15.97150       -13.59580        -3.82395
*
