# ORCA input file
# SCF done       -229.681527171254          0.000959269813
! CAM-B3LYP def2-SVP def2/J RIJCOSX Grid4 TightSCF
%maxcore 5000
%tddft
    Mode sTDDFT
    Ethresh 5.0
    maxcore 5000
end

%pal
  nprocs 6
  end
* xyz 0 1
   C       -2.61094        -2.44384        -2.63504
   C       -2.03800        -2.84802        -3.80820
   F       -1.08432        -2.10571        -4.38295
   C       -2.44151        -4.04880        -4.42713
   F       -1.86284        -4.42082        -5.57608
   C       -3.41291        -4.82820        -3.86439
   C       -4.02277        -4.43877        -2.65585
   C       -3.61401        -3.22604        -2.02798
   C       -4.20593        -2.81951        -0.81071
   C       -5.17355        -3.60290        -0.23888
   C       -5.58504        -4.80712        -0.87777
   C       -5.03163        -5.22352        -2.05504
   C       -6.64743        -5.45052        -0.08417
   O       -7.26624        -6.45322        -0.37478
   C       -6.86410        -4.55722         1.08270
   C       -5.92132        -3.45781         1.00405
   C       -5.69654        -2.52573         1.98024
   C       -6.32880        -2.54065         3.24268
   N       -6.76796        -2.54111         4.30283
   C       -4.75836        -1.47778         1.87045
   N       -4.01086        -0.60831         1.82773
   C       -7.91010        -4.67967         1.94383
   C       -8.71690        -5.84493         2.06769
   C      -10.10418        -5.89737         2.09899
   N      -10.96459        -4.78905         1.99954
   O      -10.46232        -3.69840         1.77647
   O      -12.15617        -4.98396         2.14771
   C      -10.53418        -7.26233         2.16739
   C       -9.42975        -8.05527         2.14439
   C       -8.25472        -7.22491         2.09857
   C       -6.93926        -7.63174         2.25801
   C       -5.91266        -6.92700         2.93324
   C       -4.84184        -7.76518         3.11299
   C       -5.11490        -9.01538         2.49256
   N       -4.19508       -10.06382         2.45335
   O       -3.11664        -9.89477         3.00012
   O       -4.50875       -11.10830         1.88959
   C       -6.39152        -8.95981         1.90209
   C       -6.95665        -9.88259         1.02912
   C       -7.98535        -9.60892         0.14498
   C       -8.60990       -10.59469        -0.61053
   S       -9.90380       -10.19045        -1.71921
   C      -10.13951       -11.83483        -2.19767
   C       -9.22355       -12.67202        -1.54083
   C       -8.37388       -11.98949        -0.63871
   N       -7.45271       -12.65707         0.07552
   C       -7.37543       -13.95384        -0.12693
   O       -6.48293       -14.67597         0.51569
   C       -5.59799       -13.98846         1.41134
   C       -4.60294       -14.99198         1.95858
   C       -8.25521       -14.65241        -1.04152
   C       -8.13535       -16.13375        -1.17891
   N       -8.85496       -16.63389        -2.32636
   N       -9.15935       -14.00535        -1.72019
   C      -11.12947       -12.28914        -3.08380
   S      -11.23893       -13.98420        -3.45650
   C      -12.62137       -13.71859        -4.47458
   C      -12.95711       -12.35571        -4.51260
   C      -12.11291       -11.56144        -3.73296
   C      -14.01949       -11.79926        -5.24760
   N      -14.86733       -11.30440        -5.84127
   C      -13.25892       -14.83101        -5.07037
   C      -14.43852       -14.78629        -5.74362
   C      -15.09860       -15.93846        -6.23048
   C      -16.40790       -15.99951        -6.59916
   C      -16.91297       -17.12667        -7.43228
   O      -16.34666       -18.17099        -7.65326
   C      -18.21019       -16.66034        -7.96089
   C      -19.03398       -17.26661        -8.86544
   C      -20.22855       -16.61766        -9.24980
   C      -20.54194       -15.34275        -8.69425
   C      -21.73134       -14.69706        -9.08771
   C      -22.57222       -15.29087        -9.98672
   C      -22.26238       -16.55282       -10.53391
   C      -21.11531       -17.20326       -10.17436
   F      -23.10456       -17.11045       -11.41279
   F      -23.70260       -14.67799       -10.35779
   C      -19.67240       -14.74102        -7.75610
   C      -18.52744       -15.39494        -7.38666
   C      -17.48428       -15.04581        -6.42501
   C      -17.61598       -14.13924        -5.40615
   C      -16.72492       -14.02232        -4.31796
   N      -16.06806       -13.93354        -3.38081
   C      -18.73924       -13.29713        -5.25431
   N      -19.62972       -12.59161        -5.09644
   H       -2.28949        -1.52330        -2.17344
   H       -3.71022        -5.74381        -4.35115
   H       -3.88142        -1.89484        -0.36128
   H       -5.35741        -6.14152        -2.52027
   H       -8.21018        -3.82731         2.54322
   H      -11.56315        -7.56148         2.22273
   H       -9.40728        -9.12209         2.25708
   H       -6.01621        -5.94318         3.34977
   H       -3.93018        -7.54666         3.63750
   H       -6.51585       -10.87224         1.00028
   H       -8.29387        -8.58474        -0.01580
   H       -6.19069       -13.53668         2.21296
   H       -5.09263       -13.17962         0.87727
   H       -5.11325       -15.77635         2.51141
   H       -3.91423       -14.47730         2.62077
   H       -4.04006       -15.44506         1.14709
   H       -8.46464       -16.56475        -0.21344
   H       -7.07435       -16.38829        -1.28478
   H       -9.77460       -16.21214        -2.37776
   H       -8.94908       -17.64100        -2.28299
   H      -12.21531       -10.49503        -3.63234
   H      -12.79079       -15.79109        -4.89335
   H      -14.91663       -13.83262        -5.90809
   H      -14.51865       -16.84423        -6.37011
   H      -18.77795       -18.22892        -9.28193
   H      -21.98497       -13.73274        -8.67592
   H      -20.89273       -18.16810       -10.60244
   H      -19.92894       -13.77204        -7.35886
*
