# ORCA input file
# SCF done       -166.958367178971          0.000872440895
! CAM-B3LYP def2-SVP def2/J RIJCOSX Grid4 TightSCF
%maxcore 5000
%tddft
    Mode sTDDFT
    Ethresh 5.0
    maxcore 5000
end

%pal
  nprocs 6
  end
* xyz 0 1
   C        1.65253         2.15103        -6.63872
   S        3.01374         2.25709        -5.61044
   C        3.50099         0.64815        -6.03614
   C        4.72253         0.08630        -5.52465
   O        5.17302        -0.99876        -5.81517
   C        2.61980         0.07905        -6.94847
   C        1.56912         0.95816        -7.28855
   C        2.79078        -1.26071        -7.46904
   C        3.02611        -1.62571        -8.77119
   N        3.11609        -0.77516        -9.88979
   O        3.31861        -1.29346       -10.97291
   O        2.98515         0.42579        -9.71703
   C        3.25935        -3.05503        -8.83356
   C        3.22282        -3.54930        -7.57534
   C        2.92236        -2.47914        -6.66070
   C        2.67297        -2.53966        -5.30374
   C        1.82042        -1.64516        -4.59044
   C        1.69670        -2.08398        -3.30728
   C        2.52981        -3.22938        -3.11750
   N        2.51003        -3.89910        -1.88482
   O        3.00724        -5.01429        -1.79009
   O        1.95721        -3.33560        -0.95414
   C        3.18530        -3.52603        -4.32865
   C        4.27881        -4.35227        -4.62935
   C        5.05749        -5.02106        -3.71367
   C        6.10943        -5.87668        -4.05944
   N        6.90766        -6.49745        -3.12201
   C        6.80503        -6.37377        -1.68436
   C        5.64712        -7.18741        -1.11272
   C        7.85777        -7.33195        -3.70641
   O        8.67882        -7.98118        -3.08235
   C        7.62068        -7.21019        -5.13297
   C        6.55685        -6.31500        -5.32198
   C        6.30668        -6.21570        -6.74748
   O        5.48695        -5.59539        -7.38962
   N        7.27012        -7.05745        -7.33139
   C        7.32937        -7.24647        -8.76115
   C        6.62333        -8.52835        -9.19544
   C        8.05470        -7.67432        -6.38981
   C        9.07029        -8.60025        -6.67478
   C        9.79851        -9.18899        -5.67461
   C       10.79432       -10.15184        -5.85289
   S       11.24350       -10.78809        -7.40683
   C       12.40562       -11.87828        -6.73617
   C       12.48462       -11.73184        -5.33861
   C       11.55927       -10.76385        -4.83636
   C       11.48571       -10.49727        -3.46108
   C       12.33356       -11.15872        -2.60085
   C       12.27692       -10.91229        -1.20866
   N       12.22903       -10.71348        -0.08176
   C       13.29549       -12.08507        -3.10339
   C       14.18642       -12.72194        -2.20679
   N       14.91506       -13.25494        -1.50196
   C       13.37110       -12.36293        -4.44888
   C       13.10010       -12.77210        -7.59332
   S       13.24290       -12.41164        -9.29082
   C       14.10167       -13.88705        -9.57652
   C       14.55975       -14.24392       -10.90257
   O       15.16153       -15.25519       -11.16635
   C       14.25200       -14.61063        -8.41061
   C       13.69202       -13.99085        -7.29824
   H        0.98229         2.98452        -6.71656
   H        5.24802         0.75427        -4.81559
   H        0.78717         0.70733        -7.98139
   H        3.43113        -3.58681        -9.74914
   H        3.31297        -4.58279        -7.31052
   H        1.27247        -0.83658        -5.03292
   H        1.07473        -1.67368        -2.53384
   H        4.56583        -4.40926        -5.66897
   H        4.85573        -4.91020        -2.66148
   H        6.70753        -5.31852        -1.41719
   H        7.75118        -6.75114        -1.28593
   H        4.68550        -6.80287        -1.44264
   H        5.67999        -7.14262        -0.02793
   H        5.73525        -8.22732        -1.41827
   H        8.37414        -7.24772        -9.08306
   H        6.82490        -6.38303        -9.20327
   H        7.07851        -9.40220        -8.73436
   H        6.68231        -8.63137       -10.27515
   H        5.57586        -8.49084        -8.90722
   H        9.27037        -8.85803        -7.70574
   H        9.58764        -8.90385        -4.65237
   H       10.77810        -9.77969        -3.07457
   H       14.12831       -13.03986        -4.80925
   H       14.30657       -13.49592       -11.67820
   H       14.75160       -15.56247        -8.39295
   H       13.67148       -14.43977        -6.32271
*
