# ORCA input file
# SCF done       -178.274369781968          0.000564631223
! CAM-B3LYP def2-SVP def2/J RIJCOSX Grid4 TightSCF
%maxcore 5000
%tddft
    Mode sTDDFT
    Ethresh 5.0
    maxcore 5000
end

%pal
  nprocs 6
  end
* xyz 0 1
   C        3.93661         2.57505         0.94587
   C        3.49218         3.98584         1.13796
   O        4.02466         4.96788         0.66937
   C        2.27043         3.89859         1.95734
   C        2.06692         2.57432         2.34610
   C        3.17569         1.75537         1.86168
   C        3.55897         0.54988         2.38913
   C        4.78485        -0.07788         2.08850
   N        5.78655        -0.60729         1.90506
   C        2.82607        -0.15918         3.36266
   N        2.26381        -0.78915         4.14043
   C        0.94625         2.21815         3.10694
   C        0.05915         3.19787         3.47009
   C        0.24588         4.55039         3.11002
   C        1.37894         4.92332         2.32974
   C        1.56032         6.27456         1.97096
   C        0.65634         7.21913         2.37202
   C       -0.46144         6.85752         3.14108
   C       -0.66370         5.55372         3.50169
   C        4.84302         2.29794        -0.02970
   C        5.14989         1.06766        -0.65435
   C        4.40805        -0.09913        -0.72792
   C        5.03682        -1.06989        -1.49812
   C        6.27522        -0.66450        -2.02157
   S        6.64214         0.95243        -1.57794
   C        6.88757        -1.66839        -2.77622
   C        6.11189        -2.83330        -2.83062
   S        4.61768        -2.70004        -1.94409
   C        6.68798        -3.84973        -3.58918
   C        7.90724        -3.47373        -4.12028
   S        8.35279        -1.84233        -3.67030
   C        8.76480        -4.24749        -4.96925
   C        8.44998        -5.52500        -5.40833
   C        9.27539        -6.24594        -6.26606
   C       10.47997        -5.76169        -6.75433
   C       10.86634        -4.46241        -6.31032
   C       10.00387        -3.71494        -5.42550
   N       10.46717        -2.51987        -5.09278
  Se       12.01373        -2.25577        -5.86164
   N       11.98080        -3.82225        -6.63813
   C       11.27680        -6.51557        -7.67711
   C       12.48472        -6.16876        -8.24073
   C       12.94500        -7.13585        -9.13462
   C       12.09260        -8.23930        -9.26389
   S       10.70581        -8.07666        -8.25591
   C       12.56971        -9.17442       -10.18550
   C       13.78560        -8.77304       -10.76180
   S       14.35524        -7.24710       -10.14855
   C       14.26560        -9.65272       -11.72529
   C       13.43216       -10.74360       -11.89572
   S       12.04599       -10.68375       -10.81598
   C       13.58125       -11.86401       -12.74661
   C       14.32788       -11.99010       -13.87569
   C       14.66548       -13.35469       -14.37457
   O       14.15474       -14.39037       -14.00869
   C       15.75896       -13.15357       -15.34165
   C       15.97444       -11.78666       -15.52057
   C       14.99399       -11.03843       -14.73787
   C       14.60729        -9.74664       -14.98168
   C       13.47413        -9.14355       -14.39847
   N       12.53880        -8.61916       -13.98879
   C       15.23307        -8.89273       -15.91315
   N       15.71319        -8.14606       -16.64086
   C       16.98768       -11.32964       -16.37303
   C       17.75531       -12.25129       -17.03620
   C       17.55125       -13.64107       -16.89197
   C       16.52937       -14.11796       -16.01994
   C       16.33230       -15.50641       -15.87559
   C       17.11420       -16.38712       -16.57083
   C       18.12064       -15.92290       -17.43308
   C       18.33586       -14.58129       -17.59031
   H        0.77507         1.19286         3.39216
   H       -0.81388         2.93970         4.05184
   H        2.42227         6.54029         1.37978
   H        0.79674         8.25425         2.09883
   H       -1.16271         7.62001         3.44635
   H       -1.52259         5.27301         4.09392
   H        5.35494         3.16782        -0.43102
   H        3.43792        -0.22028        -0.28186
   H        6.23264        -4.81025        -3.73956
   H        7.52749        -5.98191        -5.08866
   H        8.95553        -7.23049        -6.57556
   H       12.99206        -5.25163        -8.01111
   H       15.19549        -9.52412       -12.24853
   H       13.07884       -12.77237       -12.42751
   H       17.17057       -10.27483       -16.49852
   H       18.54383       -11.91594       -17.69435
   H       15.55627       -15.85131       -15.21072
   H       16.96198       -17.45041       -16.46102
   H       18.72576       -16.63638       -17.97266
   H       19.10924       -14.22140       -18.25344
*
