# ORCA input file
# SCF done       -196.937724094500          0.000623763321
! CAM-B3LYP def2-SVP def2/J RIJCOSX Grid4 TightSCF
%maxcore 5000
%tddft
    Mode sTDDFT
    Ethresh 5.0
    maxcore 5000
end

%pal
  nprocs 6
  end
* xyz 0 1
   C       -0.62497        -2.44790        -4.09447
   C       -2.11098        -2.31938        -4.06919
   O       -2.74874        -1.55685        -3.37778
   C       -2.58996        -3.26207        -5.09664
   C       -1.51607        -4.01165        -5.58013
   C       -0.30841        -3.64092        -4.85156
   C        0.80046        -4.42546        -4.68181
   C        1.79594        -4.14058        -3.72248
   N        2.59335        -3.96482        -2.91595
   C        1.02217        -5.64078        -5.35991
   N        1.25770        -6.62842        -5.89534
   C       -1.70373        -4.96439        -6.58911
   C       -2.96562        -5.14968        -7.09060
   C       -4.07667        -4.41837        -6.61547
   C       -3.89641        -3.44323        -5.59119
   C       -5.00835        -2.71366        -5.12383
   C       -6.25058        -2.94336        -5.64809
   C       -6.43447        -3.90392        -6.65559
   C       -5.37294        -4.62486        -7.12962
   C        0.15107        -1.46657        -3.56845
   C        1.50604        -1.15775        -3.84732
   C        2.32300        -0.34124        -3.08687
   C        3.57522        -0.16216        -3.66601
   C        3.72001        -0.81193        -4.90266
   S        2.29495        -1.67094        -5.33496
   C        4.96703        -0.58755        -5.48286
   C        5.77797         0.23647        -4.68494
   S        4.99832         0.72909        -3.20677
   C        7.02233         0.50201        -5.24291
   C        7.18277        -0.11650        -6.47239
   S        5.77029        -1.05471        -6.93444
   C        8.29175        -0.05124        -7.36409
   C        9.44756         0.73843        -7.16146
   C       10.49431         0.80485        -8.14486
   N       11.56923         1.58663        -7.91766
   C       11.65634         2.26447        -6.82102
   C       10.62413         2.19518        -5.84940
   N        9.57481         1.46321        -6.02900
   F       10.70427         2.88808        -4.71545
   F       12.73134         3.02160        -6.63413
   C       10.46219         0.09517        -9.36626
   C        9.32994        -0.73024        -9.55230
   C        8.27568        -0.78794        -8.56992
   N        7.29650        -1.61053        -8.94591
   S        7.65596        -2.25023       -10.37091
   N        9.06410        -1.51834       -10.59644
   C       11.48628         0.23811       -10.34232
   C       11.54636        -0.40258       -11.57083
   C       12.64858        -0.00005       -12.31137
   C       13.44745         0.95401       -11.65894
   S       12.82362         1.34227       -10.09578
   C       14.52505         1.35683       -12.44865
   C       14.54741         0.70772       -13.69620
   S       13.23109        -0.41149       -13.90119
   C       15.60638         1.09013       -14.50834
   C       16.41041         2.04126       -13.90147
   S       15.82365         2.47186       -12.30262
   C       17.52874         2.73208       -14.42327
   C       18.31874         2.41365       -15.48314
   C       19.12928         3.48693       -16.13008
   O       19.36040         4.58042       -15.66405
   C       19.51550         2.93883       -17.44218
   C       19.11385         1.60504       -17.52474
   C       18.50327         1.20730       -16.25906
   C       18.38019        -0.07948       -15.80477
   C       18.02614        -0.40604       -14.47948
   N       17.77591        -0.72098       -13.40465
   C       18.67339        -1.22434       -16.57377
   N       18.87846        -2.19195       -17.15614
   C       19.33853         0.86271       -18.69105
   C       19.96480         1.47121       -19.74757
   C       20.39478         2.81515       -19.69251
   C       20.16824         3.58144       -18.51194
   C       20.59513         4.92411       -18.46293
   C       21.22380         5.48459       -19.54043
   C       21.45081         4.73419       -20.70542
   C       21.04601         3.42978       -20.78127
   H       -0.87074        -5.53088        -6.97307
   H       -3.12923        -5.87568        -7.87392
   H       -4.85498        -1.97811        -4.35004
   H       -7.10203        -2.38485        -5.28909
   H       -7.42417        -4.06898        -7.05510
   H       -5.51201        -5.36477        -7.90457
   H       -0.36046        -0.76816        -2.91283
   H        2.02016         0.07631        -2.14436
   H        7.78147         1.11294        -4.79522
   H       10.81059        -1.11602       -11.88964
   H       15.75644         0.73048       -15.50969
   H       17.74539         3.69297       -13.96604
   H       19.01498        -0.16294       -18.76423
   H       20.14054         0.91521       -20.65716
   H       20.41484         5.49064       -17.56306
   H       21.55111         6.51279       -19.50237
   H       21.94893         5.19727       -21.54431
   H       21.21994         2.85028       -21.67638
*
