# ORCA input file
# SCF done       -163.546343226581          0.000684945113
! CAM-B3LYP def2-SVP def2/J RIJCOSX Grid4 TightSCF
%maxcore 5000
%tddft
    Mode sTDDFT
    Ethresh 5.0
    maxcore 5000
end

%pal
  nprocs 6
  end
* xyz 0 1
   C        0.50593         2.32846         1.43010
   C       -0.09851         1.40755         2.43664
   O       -0.17055         0.20230         2.34213
   C       -0.52380         2.27641         3.54821
   C       -0.32708         3.61208         3.19508
   C        0.15985         3.67896         1.82001
   C        0.04113         4.76309         0.99122
   C        0.27025         4.71843        -0.39955
   N        0.39936         4.73066        -1.53992
   C       -0.41848         6.03024         1.40652
   N       -0.77305         7.08459         1.68924
   C       -0.61603         4.64069         4.10094
   C       -1.10756         4.30978         5.33679
   C       -1.34010         2.96997         5.71766
   C       -1.04140         1.91442         4.80711
   C       -1.27285         0.57840         5.19297
   C       -1.78326         0.29968         6.43085
   C       -2.07982         1.33542         7.33161
   C       -1.86292         2.64069         6.98476
   C        1.28380         1.81774         0.44053
   C        2.21988         2.48817        -0.38416
   C        2.89760         3.67123        -0.15167
   C        3.75104         3.99342        -1.20166
   C        3.73609         3.06913        -2.25647
   S        2.68182         1.75357        -1.91199
   C        4.54616         3.42707        -3.33492
   C        5.19154         4.62368        -3.11430
   S        4.80545         5.31514        -1.54562
   C        6.05491         5.32377        -4.01494
   C        6.66380         6.53223        -3.68187
   N        7.41157         7.26877        -4.48482
   C        7.65467         6.89852        -5.73142
   C        7.13710         5.66203        -6.20782
   C        6.32659         4.86179        -5.32979
   N        5.92072         3.73944        -5.92246
   S        6.49965         3.69862        -7.42030
   N        7.29011         5.09645        -7.40247
   C        8.41400         7.79336        -6.54406
   C        8.71555         7.69474        -7.88650
   C        9.43539         8.80519        -8.32050
   C        9.69070         9.75090        -7.31350
   S        9.02296         9.25263        -5.80090
   C       10.38025        10.87431        -7.76294
   C       10.68903        10.79647        -9.10841
   S       10.07581         9.31574        -9.83661
   C       11.29426        11.82933        -9.86693
   C       11.80796        11.79420       -11.12233
   C       11.92579        13.05744       -11.90773
   O       11.88785        14.18163       -11.45939
   C       12.02759        12.62136       -13.31227
   C       12.13540        11.23046       -13.36301
   C       12.17489        10.70500       -12.00279
   C       12.73444         9.51764       -11.61524
   C       13.02443         9.21774       -10.26651
   N       13.32777         8.97351        -9.18699
   C       13.17923         8.52328       -12.50942
   N       13.54240         7.67688       -13.19434
   C       12.21710        10.56272       -14.59122
   C       12.19220        11.30338       -15.74417
   C       12.09712        12.71259       -15.72901
   C       12.01066        13.40243       -14.48441
   C       11.91255        14.80866       -14.47520
   C       11.90309        15.50448       -15.65265
   C       11.98940        14.83055       -16.88147
   C       12.08376        13.46643       -16.92020
   H       -0.44381         5.67209         3.83918
   H       -1.32996         5.09012         6.05025
   H       -1.04103        -0.20875         4.49292
   H       -1.96286        -0.72357         6.72499
   H       -2.48180         1.09218         8.30404
   H       -2.09088         3.43954         7.67568
   H        1.21425         0.74243         0.30767
   H        2.80030         4.24835         0.74984
   H        4.66133         2.86300        -4.24123
   H        6.52450         6.94418        -2.69069
   H        8.41876         6.86074        -8.49429
   H       10.66478        11.70538        -7.14433
   H       11.25138        12.81580        -9.41407
   H       12.28359         9.48733       -14.62966
   H       12.24673        10.80562       -16.70166
   H       11.84629        15.31540       -13.52535
   H       11.82846        16.58161       -15.64498
   H       11.98001        15.40002       -17.79907
   H       12.15073        12.94586       -17.86464
*
