# ORCA input file
# SCF done       -161.567784763360          0.000468815855
! CAM-B3LYP def2-SVP def2/J RIJCOSX Grid4 TightSCF
%maxcore 5000
%tddft
    Mode sTDDFT
    Ethresh 5.0
    maxcore 5000
end

%pal
  nprocs 6
  end
* xyz 0 1
   C        3.39255         2.03072         2.27067
   C        2.37569         2.35258         3.31548
   O        2.00647         3.46344         3.62561
   C        1.91161         1.04811         3.81769
   C        2.66909         0.03012         3.23636
   C        3.70175         0.62149         2.38985
   C        4.86783         0.00681         2.01736
   C        5.96152         0.68347         1.43927
   N        6.89445         1.19179         1.00503
   C        5.15694        -1.35413         2.24930
   N        5.44069        -2.45655         2.39539
   C        2.40076        -1.31367         3.52714
   C        1.38671        -1.60812         4.40093
   C        0.61402        -0.60181         5.02091
   C        0.87314         0.76892         4.72739
   C        0.09872         1.77011         5.34809
   C       -0.89163         1.42652         6.22653
   C       -1.15149         0.07793         6.51903
   C       -0.41689        -0.91438         5.93012
   C        3.77286         2.99978         1.39858
   C        4.42431         2.87021         0.14717
   C        4.46948         1.78430        -0.70706
   C        5.18863         2.06438        -1.86512
   C        5.71133         3.36541        -1.91204
   S        5.26180         4.26543        -0.51619
   C        6.46964         3.62687        -3.05286
   C        6.52553         2.52857        -3.88574
   S        5.62921         1.15581        -3.26370
   C        7.22637         2.43470        -5.11771
   C        7.29033         1.36881        -5.99270
   F        6.64281         0.21763        -5.78832
   C        8.09767         1.60271        -7.11560
   F        8.29180         0.69302        -8.07530
   C        8.67973         2.85435        -7.13519
   S        8.19422         3.74842        -5.72296
   C        9.56471         3.40537        -8.10001
   C       10.16042         4.64877        -8.05221
   C       10.99624         4.85787        -9.14870
   C       11.03702         3.77874       -10.04444
   S       10.02932         2.48161        -9.51616
   C       11.86137         3.98747       -11.14585
   C       12.47267         5.22718       -11.10509
   S       12.02548         6.13468        -9.66824
   C       13.42682         5.78666       -11.98959
   C       13.70155         5.45986       -13.27904
   C       15.01334         5.86723       -13.86445
   O       15.78122         6.67404       -13.38930
   C       15.16583         5.04532       -15.07709
   C       13.99570         4.31645       -15.29466
   C       13.01074         4.67134       -14.27650
   C       11.65527         4.51023       -14.39167
   C       10.72245         5.09712       -13.51223
   N        9.92424         5.58176       -12.84492
   C       11.02499         3.82003       -15.44782
   N       10.45861         3.25781       -16.27268
   C       13.89747         3.43093       -16.37560
   C       14.97039         3.29991       -17.21844
   C       16.16345         4.03272       -17.03472
   C       16.27706         4.93284       -15.93513
   C       17.47131         5.65945       -15.75299
   C       18.51099         5.50218       -16.62752
   C       18.40421         4.61798       -17.71317
   C       17.25781         3.89897       -17.91321
   H        2.97045        -2.10367         3.06553
   H        1.16323        -2.63955         4.63222
   H        0.30672         2.80248         5.11540
   H       -1.48307         2.19371         6.70336
   H       -1.93900        -0.17031         7.21508
   H       -0.61413        -1.95272         6.15417
   H        3.48296         4.00775         1.68040
   H        3.97284         0.85104        -0.51382
   H        6.96022         4.55722        -3.27233
   H        9.99165         5.35173        -7.25741
   H       12.04233         3.25655       -11.91254
   H       14.08409         6.53724       -11.56028
   H       13.00200         2.85310       -16.53720
   H       14.91337         2.61729       -18.05397
   H       17.54206         6.33522       -14.91540
   H       19.42525         6.05938       -16.48812
   H       19.23787         4.50945       -18.39104
   H       17.17317         3.21841       -18.74804
*
