# ORCA input file
# SCF done       -211.134531983212          0.000599970215
! CAM-B3LYP def2-SVP def2/J RIJCOSX Grid4 TightSCF
%maxcore 5000
%tddft
    Mode sTDDFT
    Ethresh 5.0
    maxcore 5000
end

%pal
  nprocs 6
  end
* xyz 0 1
   C        2.75235         8.11440        -0.01383
   C        2.37188         9.34293         0.73828
   O        2.48262         9.51305         1.93292
   C        1.90597        10.29046        -0.29167
   C        1.86157         9.64867        -1.53025
   C        2.21392         8.24422        -1.35212
   C        1.82737         7.21444        -2.16595
   C        1.89629         5.85974        -1.77393
   N        1.86378         4.75548        -1.46293
   C        1.21466         7.38761        -3.42290
   N        0.72557         7.47549        -4.45760
   C        1.48312        10.34537        -2.68472
   C        1.14783        11.66936        -2.57286
   C        1.16212        12.34449        -1.33223
   C        1.55264        11.64701        -0.15213
   C        1.56678        12.32652         1.08291
   C        1.20437        13.64365         1.14719
   C        0.81770        14.33541        -0.01184
   C        0.79788        13.70201        -1.22404
   C        3.58450         7.20313         0.55183
   C        4.39355         6.22288        -0.07494
   C        5.05067         5.19128         0.56665
   C        5.85217         4.41336        -0.27382
   C        6.66226         3.30542         0.25230
   C        6.03331         2.25604         0.93666
   C        6.80076         1.22410         1.46823
   C        8.17519         1.25409         1.32876
   C        8.81212         2.28939         0.66828
   C        8.05832         3.32350         0.12671
   O        8.57380         4.39284        -0.54297
   C        9.96504         4.45428        -0.74057
   O        4.67997         2.33013         1.00295
   C        3.96858         1.28170         1.61522
   C        5.82801         4.86253        -1.59147
   S        4.82910         6.26709        -1.75935
   C        6.45223         4.32336        -2.76065
   C        7.02826         3.06319        -2.83176
   C        7.63676         2.58764        -3.98980
   F        8.18128         1.35480        -3.90522
   C        7.72872         3.29033        -5.18639
   C        7.12437         4.57465        -5.14530
   C        6.48435         5.07768        -3.96484
   N        5.96363         6.28603        -4.16421
   S        6.24009         6.74172        -5.68061
   N        7.04937         5.43780        -6.15569
   C        8.31883         2.80926        -6.39908
   C        8.73476         1.53510        -6.73497
   C        9.21933         1.43178        -8.04221
   C        9.61301         0.16216        -8.67585
   C        8.75003        -0.29778        -9.69601
   C        8.96492        -1.52431       -10.30200
   C       10.03893        -2.30369        -9.89949
   C       10.89991        -1.86180        -8.92377
   C       10.70520        -0.62157        -8.30570
   O       11.66077        -0.31412        -7.38568
   C       11.85218         1.00387        -6.93293
   O        7.71854         0.53691        -9.98294
   C        6.75341         0.14233       -10.92785
   C        9.15304         2.64040        -8.73594
   S        8.52743         3.90618        -7.72113
   C        9.62883         2.85736       -10.04694
   C        9.49878         3.95703       -10.83799
   C       10.46260         4.18131       -11.94723
   O       11.18476         3.34747       -12.45106
   C       10.38705         5.62832       -12.23164
   C        9.37463         6.20202       -11.46178
   C        8.68748         5.14977       -10.71936
   C        7.40047         5.21550       -10.25584
   C        6.64051         4.07325        -9.92235
   N        5.94815         3.17629        -9.74009
   C        6.65389         6.40396       -10.14626
   N        6.01526         7.34580        -9.99136
   C        9.12274         7.57854       -11.52201
   C        9.88675         8.35107       -12.35690
   C       10.90692         7.80016       -13.16348
   C       11.17488         6.40145       -13.10654
   C       12.19456         5.85710       -13.91375
   C       12.91799         6.66566       -14.74616
   C       12.65779         8.04413       -14.80679
   C       11.67610         8.59967       -14.03319
   H        1.46848         9.85375        -3.64398
   H        0.85919        12.22513        -3.45337
   H        1.86628        11.78474         1.96611
   H        1.21289        14.16277         2.09402
   H        0.53528        15.37525         0.06193
   H        0.50024        14.23213        -2.11727
   H        3.71464         7.29856         1.62591
   H        4.94206         4.99560         1.61826
   H        6.33823         0.40217         1.98908
   H        8.76599         0.45196         1.74422
   H        9.88593         2.28090         0.58256
   H       10.50596         4.50521         0.20949
   H       10.13991         5.37040        -1.30262
   H       10.32631         3.59952        -1.32141
   H        4.22360         1.18668         2.67573
   H        4.14497         0.32681         1.11062
   H        2.91833         1.55124         1.51844
   H        7.00475         2.40380        -1.98016
   H        8.66088         0.69118        -6.07325
   H        8.30623        -1.88122       -11.07617
   H       10.20390        -3.26216       -10.36728
   H       11.74747        -2.44957        -8.61173
   H       11.14460         1.27077        -6.14263
   H       11.77675         1.72807        -7.74791
   H       12.86397         1.02562        -6.52588
   H        7.18962         0.03530       -11.92627
   H        6.02151         0.94857       -10.93194
   H        6.26663        -0.79376       -10.63761
   H       10.26606         2.07284       -10.44632
   H        8.35165         8.02360       -10.91417
   H        9.71156         9.41596       -12.41154
   H       12.38529         4.79699       -13.85781
   H       13.69759         6.24767       -15.36550
   H       13.24113         8.66417       -15.47148
   H       11.47331         9.66007       -14.07873
*
