# ORCA input file
# SCF done       -195.838635396502          0.000289772906
! CAM-B3LYP def2-SVP def2/J RIJCOSX Grid4 TightSCF
%maxcore 5000
%tddft
    Mode sTDDFT
    Ethresh 5.0
    maxcore 5000
end

%pal
  nprocs 6
  end
* xyz 0 1
   C        1.09011        -2.01391        -0.36017
   C        0.37777        -2.89136         0.61165
   O        0.34557        -4.10229         0.58285
   C       -0.21044        -1.97433         1.60427
   C        0.01304        -0.65607         1.20604
   C        0.68193        -0.65352        -0.09329
   C        0.67096         0.39081        -0.98193
   C        1.06723         0.28521        -2.33032
   N        1.33994         0.25479        -3.44512
   C        0.18782         1.68177        -0.68565
   N       -0.15967         2.76013        -0.49982
   C       -0.41777         0.41226         2.00297
   C       -1.07402         0.13700         3.17442
   C       -1.33710        -1.18513         3.59437
   C       -0.89468        -2.28041         2.79635
   C       -1.15846        -3.59906         3.21976
   C       -1.83752        -3.82318         4.38544
   C       -2.27648        -2.74801         5.17501
   C       -2.03140        -1.45845         4.79043
   C        1.99090        -2.57301        -1.21494
   C        3.01657        -1.95638        -1.96254
   C        3.62665        -0.71919        -1.78234
   C        4.60183        -0.46726        -2.72965
   C        4.75022        -1.51347        -3.64642
   S        3.71332        -2.82997        -3.31698
   C        5.71302        -1.14044        -4.61292
   C        6.17344         0.14515        -4.32070
   C        5.50735         0.68875        -3.07936
   C        6.53020         0.96654        -1.97419
   C        4.68566         1.94328        -3.39137
   C        7.10673         0.60370        -5.23924
   C        7.35989        -0.33248        -6.22808
   S        6.43561        -1.80172        -6.01778
   C        8.23393        -0.22922        -7.35606
   C        8.93381         0.88744        -7.69748
   C        9.76129         0.89518        -8.86089
   C       10.49259         2.01133        -9.23689
   C       11.30077         2.00619       -10.38305
   N       11.95881         1.98436       -11.32530
   C       10.46363         3.19481        -8.48491
   N       10.43084         4.15616        -7.85562
   C        9.79211        -0.31884        -9.61172
   C        9.07181        -1.39994        -9.20504
   O        8.29713        -1.37121        -8.08947
   C        9.05952        -2.66822        -9.86747
   C        9.65436        -3.02459       -11.06629
   C        9.44595        -4.36262       -11.36855
   C        8.69509        -5.02668       -10.39624
   S        8.22368        -4.00239        -9.10693
   C        8.55837        -6.38389       -10.76998
   C        9.22082        -6.58640       -11.98555
   C        9.83462        -5.30123       -12.48565
   C       11.35517        -5.41028       -12.62406
   C        9.19454        -4.87844       -13.81212
   C        9.12155        -7.88823       -12.43977
   C        8.38982        -8.69873       -11.57724
   S        7.84123        -7.81127       -10.16556
   C        8.11554       -10.08012       -11.66246
   C        8.17565       -10.90447       -12.74515
   C        8.29213       -12.37433       -12.52733
   O        8.10745       -12.95423       -11.47964
   C        8.72239       -12.92463       -13.82541
   C        8.72395       -11.90853       -14.78134
   C        8.24598       -10.67087       -14.16900
   C        7.72655        -9.59972       -14.84976
   C        7.03991        -8.53414       -14.23369
   N        6.44628        -7.65680       -13.79117
   C        7.74539        -9.46332       -16.25272
   N        7.75439        -9.27809       -17.38582
   C        9.12251       -12.16926       -16.09860
   C        9.50738       -13.44233       -16.43018
   C        9.50780       -14.49519       -15.48938
   C        9.10696       -14.24098       -14.14511
   C        9.11322       -15.29423       -13.20787
   C        9.49979       -16.54968       -13.58810
   C        9.89428       -16.80607       -14.91128
   C        9.89871       -15.80313       -15.84135
   H       -0.22854         1.43229         1.71043
   H       -1.40821         0.94938         3.80350
   H       -0.81620        -4.41664         2.60521
   H       -2.04211        -4.83314         4.70784
   H       -2.81115        -2.94846         6.09168
   H       -2.36873        -0.62952         5.39579
   H        1.93793        -3.65579        -1.28175
   H        3.37988        -0.06205        -0.96792
   H        7.11367         0.07309        -1.76304
   H        6.02163         1.27476        -1.06429
   H        7.20559         1.76000        -2.28331
   H        3.92247         1.71952        -4.13272
   H        5.33196         2.72892        -3.77385
   H        4.19413         2.30061        -2.49006
   H        7.58420         1.56502        -5.20127
   H        8.86260         1.77812        -7.09690
   H       10.40098        -0.37375       -10.49793
   H       10.20468        -2.33533       -11.67914
   H       11.80257        -5.70756       -11.67820
   H       11.77156        -4.45135       -12.92125
   H       11.60900        -6.15044       -13.37857
   H        8.11189        -4.84982       -13.71648
   H        9.45148        -5.58954       -14.59305
   H        9.55047        -3.89335       -14.10239
   H        9.59079        -8.26269       -13.33169
   H        7.89444       -10.58052       -10.72424
   H        9.13949       -11.38428       -16.83714
   H        9.82305       -13.65926       -17.44048
   H        8.80852       -15.08524       -12.19458
   H        9.50456       -17.35605       -12.87004
   H       10.19580       -17.80514       -15.18930
   H       10.20126       -15.99795       -16.86012
*
