# ORCA input file
# SCF done       -188.355986582840          0.000551551759
! CAM-B3LYP def2-SVP def2/J RIJCOSX Grid4 TightSCF
%maxcore 5000
%tddft
    Mode sTDDFT
    Ethresh 5.0
    maxcore 5000
end

%pal
  nprocs 6
  end
* xyz 0 1
   C        3.38885        -1.85811         0.88334
   C        3.05428        -2.53930         2.16966
   O        2.38174        -3.53882         2.28870
   C        3.75882        -1.76626         3.20683
   C        4.33681        -0.63342         2.63131
   C        3.98857        -0.58266         1.21456
   C        3.98800         0.54172         0.43292
   C        3.39351         0.59996        -0.84489
   N        2.88623         0.70739        -1.86871
   C        4.49270         1.79301         0.84353
   N        4.90561         2.82821         1.11729
   C        5.09266         0.25488         3.40695
   C        5.25001        -0.00836         4.74282
   C        4.66847        -1.13822         5.35895
   C        3.89904        -2.05055         4.57920
   C        3.32229        -3.17820         5.19813
   C        3.50009        -3.39272         6.53714
   C        4.25724        -2.49766         7.31004
   C        4.82882        -1.39555         6.73563
   C        3.19323        -2.51610        -0.28774
   C        3.76161        -2.25385        -1.55935
   C        4.91851        -1.57431        -1.88363
   C        5.18843        -1.57953        -3.25037
  Cl        6.56404        -0.81024        -3.92124
   C        4.24498        -2.25608        -4.01717
   S        3.01962        -2.91978        -2.98478
   C        4.22411        -2.42372        -5.42424
   C        3.30069        -3.12234        -6.19208
  Cl        1.95120        -3.93709        -5.52426
   C        3.56813        -3.11110        -7.56174
   C        4.70498        -2.39817        -7.87326
   S        5.44838        -1.73366        -6.45055
   C        5.26527        -2.20428        -9.16301
   C        6.39017        -1.48196        -9.51029
   F        7.13543        -0.82447        -8.61653
   C        6.67937        -1.50588       -10.88180
   F        7.73049        -0.87187       -11.41104
   C        5.78572        -2.25125       -11.62760
   S        4.56553        -2.92005       -10.58530
   C        5.79375        -2.49993       -13.02721
   C        6.66941        -2.01180       -13.97201
   C        6.38748        -2.48348       -15.25639
  Cl        7.31521        -2.03356       -16.62369
   C        5.29606        -3.33891       -15.32914
   S        4.60623        -3.54679       -13.74483
   C        4.76413        -3.98657       -16.47101
   C        3.65231        -4.81565       -16.55380
  Cl        2.67747        -5.20003       -15.19955
   C        3.40594        -5.31773       -17.83201
   C        4.30155        -4.85983       -18.77437
   S        5.49572        -3.82713       -18.03622
   C        4.35706        -5.23780       -20.14179
   C        4.99696        -4.62226       -21.16612
   C        5.34116        -5.38974       -22.39965
   O        4.87127        -6.45592       -22.72813
   C        6.39699        -4.59855       -23.05572
   C        6.56628        -3.38971       -22.37724
   C        5.58989        -3.30591       -21.29778
   C        5.11958        -2.15342       -20.72937
   C        3.96236        -2.11413       -19.92198
   N        2.99584        -2.04007       -19.30788
   C        5.66965        -0.87552       -20.95623
   N        6.08950         0.18383       -21.09254
   C        7.53310        -2.46523       -22.79215
   C        8.30479        -2.76680       -23.88375
   C        8.14940        -3.97272       -24.60263
   C        7.17443        -4.92508       -24.18430
   C        7.02782        -6.12929       -24.90227
   C        7.81234        -6.37777       -25.99483
   C        8.77123        -5.44161       -26.41383
   C        8.93770        -4.26639       -25.73369
   H        5.55362         1.12190         2.96225
   H        5.83530         0.66276         5.35466
   H        2.74346        -3.85913         4.59439
   H        3.05753        -4.25606         7.01099
   H        4.38546        -2.68741         8.36540
   H        5.41113        -0.70505         7.32838
   H        2.56960        -3.40224        -0.21997
   H        5.57573        -1.12412        -1.16247
   H        2.95678        -3.60343        -8.29546
   H        7.48122        -1.34319       -13.75635
   H        2.58200        -5.96734       -18.06330
   H        3.89631        -6.19101       -20.38300
   H        7.67597        -1.54043       -22.25701
   H        9.05841        -2.06756       -24.21611
   H        6.28823        -6.84110       -24.57131
   H        7.69871        -7.29978       -26.54504
   H        9.37879        -5.65787       -27.28006
   H        9.67478        -3.54441       -26.05420
*
