# ORCA input file
# SCF done       -260.013377521811          0.000556726161
! CAM-B3LYP def2-SVP def2/J RIJCOSX Grid4 TightSCF
%maxcore 5000
%tddft
    Mode sTDDFT
    Ethresh 5.0
    maxcore 5000
end

%pal
  nprocs 6
  end
* xyz 0 1
   C        7.64557        -4.17786         7.99071
   C        6.99219        -4.46579         9.18576
   C        7.48274        -3.84641        10.45549
   C        5.88459        -5.32783         9.20486
   C        5.18796        -5.63834        10.49085
   C        5.43774        -5.89748         8.01748
   C        6.09243        -5.60740         6.83820
   C        7.20185        -4.74676         6.80830
   C        7.68170        -4.63906         5.43401
   C        8.74636        -3.87664         5.02786
   C        9.52484        -3.08273         5.89640
   N       10.20085        -2.41627         6.54252
   C        9.23279        -3.75841         3.70930
   N        9.70018        -3.60072         2.67143
   C        6.82975        -5.47983         4.60880
   C        5.80589        -6.09199         5.47911
   O        4.90588        -6.84278         5.15654
   C        6.97626        -5.68082         3.26586
   C        6.24405        -6.48749         2.36886
   C        6.60833        -6.59894         1.03896
   C        5.80058        -7.47072         0.29245
   C        4.75571        -8.01589         1.08908
   S        4.83657        -7.46368         2.74015
   C        3.78525        -8.86091         0.57156
   C        2.68575        -9.38261         1.39315
   C        1.36855        -9.28356         0.95325
   C        0.33129        -9.76832         1.72693
   C        0.57605       -10.36482         2.95654
   C        1.89259       -10.46012         3.39413
   C        2.93362        -9.97560         2.62862
   C       -0.54306       -10.88264         3.80777
   C        3.89658        -9.19158        -0.79028
   C        4.94533        -8.65007        -1.58195
   C        5.90989        -7.79743        -1.07685
   C        7.00502        -7.28441        -1.90696
   C        6.74466        -6.69044        -3.13951
   C        7.77916        -6.21767        -3.92141
   C        9.10080        -6.32936        -3.50440
   C        9.35815        -6.93033        -2.27850
   C        8.32802        -7.40029        -1.48756
   C       10.21691        -5.83492        -4.37118
   S        4.89248        -9.26469        -3.21263
   C        3.49852       -10.25266        -2.82526
   C        3.10063       -10.09761        -1.52543
   C        2.89336       -11.13112        -3.78521
   C        3.37300       -11.34252        -5.06978
   F        4.45477       -10.66894        -5.49984
   C        2.80435       -12.24884        -5.97798
   F        3.40448       -12.34511        -7.17769
   C        1.69605       -13.03397        -5.69551
   C        1.15722       -12.81230        -4.40269
   C        1.73731       -11.89289        -3.47786
   N        0.99094       -11.92822        -2.36472
   N        0.05445       -12.79653        -2.62448
   N        0.08984       -13.35656        -3.80071
   C       -0.97066       -13.10823        -1.67678
   C        1.13821       -14.00645        -6.59172
   C        0.08102       -14.82979        -6.31427
   C       -0.23514       -15.72290        -7.36165
   C        0.64363       -15.56415        -8.46664
   S        1.80378       -14.29750        -8.18610
   C        0.55948       -16.34042        -9.60696
   C        1.51172       -16.27573       -10.72314
   C        2.86970       -16.46432       -10.48243
   C        3.75616       -16.57207       -11.53492
   C        3.31918       -16.48729       -12.85189
   C        1.97061       -16.24774       -13.08596
   C        1.07551       -16.14583       -12.03850
   C        4.27280       -16.69853       -13.98429
   C       -0.43462       -17.33609        -9.61136
   C       -1.27809       -17.53402        -8.48691
   C       -1.22199       -16.72680        -7.36312
   C       -2.12475       -16.90498        -6.21807
   C       -2.28225       -18.15352        -5.62199
   C       -3.12918       -18.31162        -4.54365
   C       -3.84636       -17.23559        -4.03174
   C       -3.69129       -15.99340        -4.63239
   C       -2.84219       -15.82600        -5.70992
   C       -4.76643       -17.42832        -2.86510
   S       -2.33081       -18.90280        -8.73047
   C       -1.59088       -19.24363       -10.28831
   C       -0.64852       -18.30267       -10.61141
   C       -2.00643       -20.36839       -11.04100
   C       -1.39937       -20.94626       -12.11320
   C       -2.20505       -21.85159       -12.98391
   O       -3.27054       -22.35570       -12.71091
   C       -1.45082       -21.94085       -14.24631
   C       -0.23167       -21.25251       -14.11620
   C        0.62791       -21.17913       -15.19849
   C        0.28383       -21.79791       -16.39670
   C       -0.92666       -22.49925       -16.51445
   C       -1.79506       -22.56220       -15.42953
   C       -1.28579       -23.17694       -17.79785
   C        1.22038       -21.71480       -17.55954
   C       -0.10629       -20.76598       -12.74542
   C        1.07983       -20.43902       -12.13933
   C        1.23675       -20.28763       -10.74612
   N        1.43091       -20.20928        -9.61757
   C        2.29672       -20.26554       -12.82674
   N        3.30390       -20.06696       -13.34205
   H        8.49400        -3.51304         8.00597
   H        8.35008        -3.21947        10.26916
   H        7.75696        -4.61613        11.17587
   H        6.70281        -3.23519        10.90845
   H        5.87228        -6.11865        11.18964
   H        4.34421        -6.30135        10.32066
   H        4.82511        -4.72554        10.96168
   H        4.58798        -6.56368         8.00555
   H        7.79457        -5.16094         2.78147
   H        7.43536        -6.05040         0.62293
   H        1.15600        -8.80182         0.01014
   H       -0.68554        -9.67551         1.37120
   H        2.10211       -10.92006         4.34914
   H        3.94904       -10.07257         2.98143
   H       -0.34351       -11.90564         4.12327
   H       -1.48780       -10.85879         3.27006
   H       -0.64276       -10.27288         4.70549
   H        5.72380        -6.57916        -3.47365
   H        7.55908        -5.75300        -4.87169
   H       10.37885        -7.03340        -1.93875
   H        8.54883        -7.88681        -0.54837
   H       10.43679        -6.56885        -5.14722
   H       11.12107        -5.67453        -3.78914
   H        9.94154        -4.90371        -4.86179
   H        2.27499       -10.64401        -1.11074
   H       -1.68888       -12.28844        -1.61971
   H       -0.52308       -13.25123        -0.69419
   H       -1.47345       -14.01444        -2.00708
   H       -0.43271       -14.80309        -5.37226
   H        3.22070       -16.56583        -9.46653
   H        4.80310       -16.74481       -11.33358
   H        1.61380       -16.15421       -14.10234
   H        0.02943       -15.95627       -12.23718
   H        5.24846       -16.27564       -13.75638
   H        3.89717       -16.25512       -14.90344
   H        4.39875       -17.77015       -14.14536
   H       -1.72036       -18.99748        -5.99285
   H       -3.23680       -19.28539        -4.08786
   H       -4.24566       -15.14488        -4.25588
   H       -2.74893       -14.85635        -6.17667
   H       -5.57986       -18.10102        -3.13501
   H       -5.19417       -16.48212        -2.54288
   H       -4.23237       -17.87523        -2.02754
   H       -0.13370       -18.28143       -11.55397
   H       -2.96517       -20.79972       -10.77033
   H        1.55971       -20.64007       -15.13063
   H       -2.73192       -23.09430       -15.50035
   H       -1.33252       -22.45514       -18.61269
   H       -2.24998       -23.67081       -17.71560
   H       -0.53474       -23.92108       -18.06096
   H        2.10408       -21.13752       -17.30225
   H        0.73214       -21.24542       -18.41296
   H        1.53458       -22.71137       -17.86786
*
