# ORCA input file
# SCF done       -175.359645794261          0.000302256482
! CAM-B3LYP def2-SVP def2/J RIJCOSX Grid4 TightSCF
%maxcore 5000
%tddft
    Mode sTDDFT
    Ethresh 5.0
    maxcore 5000
end

%pal
  nprocs 6
  end
* xyz 0 1
   C       -2.30490        -1.45045        -0.69932
   C       -2.37941        -0.59166         0.39352
   C       -3.12691         0.69654         0.26224
   C       -1.76098        -0.92744         1.60874
   C       -1.84708        -0.00461         2.78163
   C       -1.06337        -2.12562         1.71698
   C       -0.99098        -2.96951         0.62711
   C       -1.61327        -2.64522        -0.58890
   C       -1.37729        -3.72566        -1.53765
   C       -1.97470        -3.84633        -2.76430
   C       -2.86141        -2.88986        -3.30337
   N       -3.58496        -2.15016        -3.80052
   C       -1.84564        -4.94402        -3.64233
   N       -1.81865        -5.80282        -4.40441
   C       -0.47578        -4.68014        -0.90603
   C       -0.30759        -4.26838         0.51288
   O        0.27299        -4.84718         1.40754
   C        0.17952        -5.66167        -1.59432
   C        1.06557        -6.67109        -1.16069
   C        1.41285        -7.12866         0.10112
   C        2.32234        -8.17558         0.04095
   C        2.69415        -8.54492        -1.26620
   S        1.88090        -7.58188        -2.43827
   C        3.61857        -9.58023        -1.32034
   C        3.96659       -10.02887        -0.05536
   S        3.12464        -9.15686         1.21638
   C        4.88791       -11.05859         0.29510
   C        5.69757       -11.76471        -0.62573
   C        6.61410       -12.78524        -0.19561
   N        7.37764       -13.41768        -1.10925
   C        7.28000       -13.11106        -2.36023
   C        6.37071       -12.10735        -2.78488
   N        5.62447       -11.47325        -1.94261
   F        6.26071       -11.78244        -4.07076
   F        8.05488       -13.75321        -3.22678
   C        6.77072       -13.17398         1.15434
   C        5.96483       -12.46999         2.07800
   C        5.05514       -11.43617         1.64688
   N        4.40059       -10.89707         2.67546
   S        4.86849       -11.60354         4.03456
   N        5.92504       -12.62976         3.40286
   C        7.67934       -14.19850         1.53950
   C        7.88512       -14.67085         2.82764
   C        8.84455       -15.67322         2.86164
   C        9.38693       -15.98441         1.60185
   S        8.68633       -15.00933         0.35705
   C       10.33342       -17.00067         1.63653
   C       10.53588       -17.48279         2.92003
   S        9.54810       -16.63894         4.10279
   C       11.44706       -18.46138         3.38147
   C       12.09969       -19.43310         2.68969
   C       13.32155       -20.04830         3.29146
   O       13.68002       -19.95490         4.44263
   C       13.99744       -20.72491         2.17234
   C       13.19087       -20.65482         1.02204
   C       13.64567       -21.20202        -0.16471
   C       14.89034       -21.82434        -0.20488
   C       15.68388       -21.90598         0.95085
   C       15.22869       -21.34796         2.14106
   C       17.01411       -22.58668         0.90766
   C       15.37671       -22.40749        -1.49257
   C       11.93666       -19.99085         1.36357
   C       10.76235       -20.11028         0.66744
   C        9.51420       -19.68219         1.16255
   N        8.47318       -19.38456         1.54361
   C       10.65500       -20.75817        -0.58012
   N       10.51988       -21.25889        -1.60415
   H       -2.78379        -1.16743        -1.62283
   H       -3.54391         0.80070        -0.73551
   H       -2.46831         1.54276         0.45528
   H       -3.94031         0.74166         0.98561
   H       -1.41503         0.96554         2.53802
   H       -1.31659        -0.41664         3.63560
   H       -2.88642         0.16065         3.06358
   H       -0.57815        -2.40381         2.64067
   H        0.03222        -5.66832        -2.66872
   H        1.02057        -6.70404         1.00608
   H        4.02689        -9.99702        -2.22000
   H        7.35192       -14.28938         3.67745
   H       10.88163       -17.34377         0.77830
   H       11.72294       -18.38903         4.42962
   H       13.05432       -21.14374        -1.06507
   H       15.82490       -21.39847         3.03984
   H       17.66670       -22.10695         0.17895
   H       16.90128       -23.62901         0.61118
   H       17.49568       -22.55296         1.88097
   H       14.63955       -22.27445        -2.27938
   H       15.57571       -23.47240        -1.37894
   H       16.30669       -21.93063        -1.80102
*
