# ORCA input file
# SCF done       -170.364276889139          0.000540066333
! CAM-B3LYP def2-SVP def2/J RIJCOSX Grid4 TightSCF
%maxcore 5000
%tddft
    Mode sTDDFT
    Ethresh 5.0
    maxcore 5000
end

%pal
  nprocs 6
  end
* xyz 0 1
   C        2.95369        -0.72765        12.69431
   C        3.09270        -1.08038        14.03451
   C        2.21620        -0.42883        15.05670
   C        4.04543        -2.03240        14.42599
   C        4.19467        -2.40750        15.86610
   C        4.85696        -2.62759        13.46509
   C        4.71383        -2.27127        12.14037
   C        3.76199        -1.31938        11.73964
   C        3.84607        -1.14618        10.29048
   C        3.04437        -0.31555         9.54379
   C        2.02928         0.49738        10.08589
   N        1.18782         1.18447        10.45987
   C        3.10153        -0.15317         8.14526
   N        3.07662         0.03891         7.01244
   C        4.90250        -2.00381         9.81150
   C        5.46003        -2.75041        10.96270
   O        6.34898        -3.58056        10.95564
   C        5.36712        -2.09614         8.51800
   C        6.41440        -2.91820         8.10475
   C        6.91008        -2.91952         6.81743
   C        8.00819        -3.67374         6.34141
   C        8.33636        -3.42186         5.04253
   C        7.50534        -2.46216         4.42409
   S        6.27633        -1.90654         5.53764
   C        7.62111        -1.93846         3.14830
   C        8.64867        -2.18027         2.20693
   C        8.54847        -1.42636         1.08005
   C        7.42205        -0.55978         1.05141
   S        6.48123        -0.77359         2.52194
   C        7.17178         0.37101         0.08056
   C        6.05985         1.24802        -0.02690
   C        6.16421         2.45136        -0.75851
   N        5.17376         3.29044        -0.87032
   C        3.99296         2.97522        -0.30441
   N        3.77351         1.83418         0.36847
   C        4.77506         1.01190         0.51757
   C        2.94968         3.92164        -0.44847
   C        3.19334         5.14972        -1.00311
   C        2.27246         6.21542        -1.18281
   C        2.83558         7.35716        -1.66134
   C        4.23048         7.24524        -1.87479
   S        4.79428         5.62087        -1.51640
   C        5.10450         8.24766        -2.25111
   C        4.81564         9.59616        -2.56156
   C        5.92131        10.34999        -2.81715
   C        7.14108         9.63806        -2.71613
   S        6.82771         7.96239        -2.32709
   C        8.40927        10.15862        -2.87041
   C        9.56750         9.40419        -2.69032
   C       10.88011         9.79936        -2.78646
   C       11.92255         8.96070        -2.13935
   O       11.78729         7.82885        -1.72616
   C       13.11978         9.81723        -2.06939
   C       12.86008        11.03583        -2.72007
   C       13.83937        12.01217        -2.74797
   C       15.06930        11.77557        -2.13807
   C       15.32437        10.55348        -1.49861
   C       14.33698         9.57349        -1.46831
   C       16.64672        10.30020        -0.84724
   C       16.11919        12.84045        -2.16986
   C       11.51107        10.99228        -3.28710
   C       11.04163        11.83933        -4.26270
   C        9.86140        11.63335        -5.00338
   N        8.93628        11.50162        -5.67157
   C       11.74268        12.97165        -4.72170
   N       12.25508        13.91866        -5.12237
   H        2.21511         0.00855        12.42075
   H        1.51987         0.25890        14.58488
   H        2.81726         0.12510        15.77748
   H        1.64790        -1.17689        15.60827
   H        3.26230        -2.81625        16.25462
   H        4.44523        -1.53300        16.46590
   H        4.97774        -3.15044        15.99081
   H        5.59790        -3.36228        13.74356
   H        4.91071        -1.47211         7.75907
   H        6.88492        -3.56706         8.82948
   H        8.52702        -4.36661         6.97961
   H        9.14730        -3.89675         4.52018
   H        9.44300        -2.87855         2.39906
   H        9.24813        -1.45559         0.26349
   H        7.93737         0.48568        -0.67804
   H        7.09512         2.73688        -1.23341
   H        4.55585         0.09652         1.05157
   H        1.97110         3.66338        -0.07766
   H        1.23137         6.10056        -0.93759
   H        2.29441         8.26894        -1.84192
   H        3.80854         9.97203        -2.58204
   H        5.90445        11.39497        -3.07075
   H        8.47728        11.21224        -3.09648
   H        9.43456         8.38615        -2.33366
   H       13.66453        12.96268        -3.22665
   H       14.51177         8.62616        -0.98031
   H       16.84264        11.04407        -0.07555
   H       17.45280        10.36402        -1.57759
   H       16.66824         9.31369        -0.39221
   H       15.77073        13.70919        -2.72146
   H       17.02708        12.46876        -2.64350
   H       16.37953        13.15105        -1.15823
*
