# ORCA input file
# SCF done       -156.394618653194          0.000250011216
! CAM-B3LYP def2-SVP def2/J RIJCOSX Grid4 TightSCF
%maxcore 5000
%tddft
    Mode sTDDFT
    Ethresh 5.0
    maxcore 5000
end

%pal
  nprocs 6
  end
* xyz 0 1
   C       -9.18888        -9.24438         4.26989
   C       -8.21272        -8.29500         4.45438
   O       -8.22639        -7.71039         5.67331
   C       -7.11883        -7.00737         6.19813
   C       -7.29941        -7.93920         3.38852
   O       -6.50082        -6.85777         3.63126
   C       -6.28843        -5.91342         2.60018
   C       -7.28339        -8.63539         2.19032
   C       -8.31095        -9.59351         1.99558
   C       -9.27262        -9.88381         3.02749
   N      -10.08738       -10.80682         2.55188
   O       -9.66122       -11.07445         1.31466
   N       -8.59291       -10.35926         0.96265
   C       -6.27219        -8.49027         1.16668
   C       -4.91960        -8.34097         1.35540
   C       -4.22745        -8.30757         0.13938
   C       -5.05605        -8.42760        -0.97844
   S       -6.70893        -8.61165        -0.52404
   C       -4.33779        -8.38016        -2.18093
   C       -2.96453        -8.22827        -1.96916
   S       -2.54485        -8.13997        -0.27947
   C       -2.21724        -8.17531        -3.14634
   C       -3.01616        -8.28181        -4.26466
   S       -4.71380        -8.45078        -3.86175
   C       -2.61703        -8.26345        -5.63877
   C       -1.29557        -8.17930        -6.07209
   N       -0.90173        -8.15101        -7.33491
   C       -1.76630        -8.20142        -8.33656
   C       -3.15821        -8.29690        -8.05329
   C       -3.57517        -8.32972        -6.68052
   N       -4.89719        -8.42167        -6.56139
   S       -5.54948        -8.46420        -8.03044
   N       -4.19181        -8.36645        -8.88832
   C       -1.24560        -8.15566        -9.66231
   C       -1.92858        -8.16710       -10.85983
   C       -1.05549        -8.10292       -11.94348
   C        0.29748        -8.04439       -11.57629
   S        0.49109        -8.06545        -9.86376
   C        1.14462        -7.98085       -12.68788
   C        0.43602        -7.99135       -13.89533
   S       -1.28906        -8.07767       -13.67041
   C        1.25013        -7.93394       -15.02572
   C        2.58732        -7.88483       -14.69245
   S        2.84554        -7.89778       -12.96062
   C        3.68768        -7.85638       -15.61048
   C        5.01420        -7.84207       -15.18875
   O        5.17710        -7.78336       -13.84488
   C        6.30187        -8.32412       -13.18265
   C        6.11330        -7.82353       -16.12403
   O        7.34951        -7.75744       -15.56454
   C        8.47391        -7.71890       -16.41231
   C        5.90269        -7.85189       -17.47750
   C        4.57544        -7.87331       -17.93282
   C        3.46547        -7.86419       -17.01398
   N        2.36417        -7.88072       -17.73644
   O        2.75319        -7.89769       -19.01324
   N        4.07977        -7.89308       -19.15394
   H       -9.87468        -9.47467         5.06598
   H       -6.17707        -7.51461         5.98452
   H       -7.28554        -6.98488         7.27558
   H       -7.07316        -5.98454         5.81918
   H       -5.32646        -6.07168         2.10648
   H       -6.28561        -4.93541         3.08433
   H       -7.08322        -5.94886         1.85291
   H       -4.45278        -8.30262         2.32309
   H       -1.15003        -8.06156        -3.17637
   H       -0.48860        -8.13161        -5.35511
   H       -2.99936        -8.21922       -10.92141
   H        0.90209        -7.92896       -16.04110
   H        7.15257        -7.64194       -13.21815
   H        6.58943        -9.29038       -13.60072
   H        5.98060        -8.45496       -12.14931
   H        8.54411        -8.62276       -17.02441
   H        9.33524        -7.66297       -15.74886
   H        8.45526        -6.83814       -17.06045
   H        6.70073        -7.84077       -18.19746
*
