# ORCA input file
# SCF done       -191.641108655979          0.000366156137
! CAM-B3LYP def2-SVP def2/J RIJCOSX Grid4 TightSCF
%maxcore 5000
%tddft
    Mode sTDDFT
    Ethresh 5.0
    maxcore 5000
end

%pal
  nprocs 6
  end
* xyz 0 1
   C       -3.76125         1.65411         6.80799
   C       -3.26669         1.81423         8.07189
   F       -3.44259         2.97178         8.72222
   C       -2.56852         0.76755         8.70724
   F       -2.09599         0.95215         9.94729
   C       -2.37477        -0.42546         8.06931
   C       -2.87421        -0.62207         6.76717
   C       -3.57942         0.43577         6.12292
   C       -4.09150         0.26079         4.81685
   C       -3.90933        -0.93812         4.17925
   C       -3.21284        -1.99067         4.83321
   C       -2.69842        -1.84881         6.08956
   C       -3.17677        -3.18074         3.95955
   O       -2.59859        -4.21812         4.20436
   C       -3.99863        -2.82808         2.77724
   C       -4.32479        -1.41314         2.86386
   C       -4.85145        -0.63295         1.86916
   C       -5.14467        -1.07033         0.55922
   N       -5.38543        -1.34423        -0.52941
   C       -5.12216         0.74445         2.01345
   N       -5.36696         1.86412         2.07494
   C       -4.55300        -3.67263         1.85429
   C       -4.37256        -5.05541         1.65039
   C       -3.40584        -5.94383         2.09566
   C       -3.66027        -7.23772         1.66313
   C       -4.81977        -7.37502         0.87961
   S       -5.58633        -5.85511         0.64185
   C       -5.10631        -8.68760         0.50996
   C       -4.16678        -9.57909         0.99281
   S       -2.89925        -8.76723         1.90967
   C       -4.17376       -11.00369         0.91537
   C       -3.25247       -11.76099         1.56852
   C       -3.35461       -13.16687         1.70628
   C       -4.30289       -13.89010         1.05537
   C       -5.11240       -13.20227        -0.02193
   C       -5.33748       -11.69224         0.21457
   N       -5.64569       -10.98814        -1.00994
   C       -5.19305       -11.42393        -2.09948
   C       -4.43931       -12.68730        -2.19575
   N       -4.40907       -13.51379        -1.25016
   F       -3.78618       -12.94722        -3.32046
   F       -5.44568       -10.75608        -3.21733
   C       -4.51339       -15.28271         1.27163
   C       -3.73451       -16.15314         2.01129
   C       -4.30692       -17.41898         2.10514
   C       -5.54049       -17.53732         1.44483
   S       -5.96213       -16.06439         0.65472
   C       -6.16442       -18.76518         1.62493
   C       -5.40837       -19.61596         2.41411
   S       -3.88390       -18.88610         2.89776
   C       -5.69421       -20.93471         2.83332
   C       -6.90504       -21.54413         2.97011
   C       -6.96145       -23.03123         3.03653
   O       -6.02523       -23.78363         3.17192
   C       -8.38539       -23.37563         2.85079
   C       -8.96220       -24.60736         2.73501
   C      -10.35945       -24.69636         2.54436
   C      -11.13181       -23.50115         2.46544
   C      -12.52421       -23.59599         2.26923
   C      -13.12261       -24.81994         2.16232
   C      -12.35835       -26.00160         2.24343
   C      -11.00559       -25.94262         2.42971
   F      -12.97174       -27.18729         2.13526
   F      -14.44606       -24.90832         1.97899
   C      -10.50702       -22.23962         2.59325
   C       -9.15400       -22.17815         2.79419
   C       -8.26115       -21.04178         3.01364
   C       -8.66712       -19.80474         3.44363
   C       -7.79919       -18.80308         3.92215
   N       -7.15029       -17.96587         4.36479
   C      -10.01807       -19.41304         3.54456
   N      -11.09862       -19.03418         3.62367
   H       -4.29208         2.46599         6.33585
   H       -1.83898        -1.21716         8.56919
   H       -4.62536         1.07746         4.35855
   H       -2.17132        -2.66393         6.56166
   H       -5.30546        -3.24179         1.20286
   H       -2.57715        -5.65291         2.71267
   H       -5.95408        -8.98347        -0.07709
   H       -2.44309       -11.26540         2.08486
   H       -2.68790       -13.64617         2.40476
   H       -6.09250       -13.69223        -0.10988
   H       -6.21809       -11.55780         0.85895
   H       -2.79661       -15.88579         2.45920
   H       -7.10392       -19.04197         1.18206
   H       -4.83679       -21.56991         3.03508
   H       -8.36120       -25.50205         2.79170
   H      -13.12431       -22.70146         2.20967
   H      -10.43499       -26.85611         2.48968
   H      -11.11507       -21.35192         2.52278
*
