# ORCA input file
# SCF done       -185.174073485660          0.000506461943
! CAM-B3LYP def2-SVP def2/J RIJCOSX Grid4 TightSCF
%maxcore 5000
%tddft
    Mode sTDDFT
    Ethresh 5.0
    maxcore 5000
end

%pal
  nprocs 6
  end
* xyz 0 1
   C       -2.20653         1.27263         6.69517
   C       -1.99094         1.36365         8.04182
   F       -1.69960         2.54527         8.59851
   C       -2.07173         0.21893         8.86049
   F       -1.85597         0.33791        10.17644
   C       -2.36609        -1.00170         8.32045
   C       -2.59253        -1.12778         6.93616
   C       -2.51288         0.02883         6.10736
   C       -2.73863        -0.07239         4.71538
   C       -3.03363        -1.29321         4.16723
   C       -3.10458        -2.44267         5.00311
   C       -2.89460        -2.37682         6.35049
   C       -3.41828        -3.62106         4.17906
   O       -3.55753        -4.76319         4.57582
   C       -3.52006        -3.13796         2.79367
   C       -3.31092        -1.69902         2.79105
   C       -3.37924        -0.85047         1.71800
   C       -3.66966        -1.22070         0.38740
   N       -3.90167        -1.44077        -0.71560
   C       -3.17592         0.54438         1.80139
   N       -3.02249         1.68162         1.80236
   C       -3.74365        -3.91819         1.69219
   C       -3.96141        -5.30468         1.58148
   C       -4.15440        -5.90888         0.33847
   C       -4.36578        -7.27193         0.44830
   C       -4.34253        -7.73508         1.77578
   S       -4.04327        -6.46416         2.90053
   C       -4.56631        -9.10960         1.88407
   C       -4.75809        -9.69708         0.65305
   S       -4.66302        -8.55702        -0.67140
   C       -5.02516       -11.08596         0.40086
   C       -5.18734       -11.61734        -0.83953
   C       -5.46046       -13.01100        -1.00379
   C       -5.61648       -13.59292        -2.24869
   C       -5.87987       -14.96511        -2.39242
   N       -6.09176       -16.08908        -2.49758
   C       -5.51361       -12.84471        -3.43287
   N       -5.42632       -12.22602        -4.39658
   C       -5.56221       -13.76426         0.20736
   C       -5.38560       -13.16238         1.41245
   O       -5.10751       -11.83674         1.53274
   C       -5.47086       -13.84850         2.67244
   C       -5.24596       -13.30734         3.91952
   C       -5.42809       -14.25630         4.92592
   C       -5.79040       -15.52482         4.45275
   S       -5.90738       -15.54007         2.73177
   C       -5.96021       -16.47549         5.45756
   C       -5.77297       -15.93698         6.71511
   S       -5.31465       -14.23943         6.64397
   C       -5.83357       -16.65763         7.93612
   C       -5.99355       -16.19259         9.20111
   C       -5.56886       -17.03669        10.35621
   O       -5.31791       -18.21751        10.33438
   C       -5.46087       -16.09978        11.49285
   C       -4.98630       -16.33086        12.75210
   C       -4.94825       -15.26443        13.67804
   C       -5.39916       -13.97239        13.27802
   C       -5.34787       -12.91143        14.20440
   C       -4.87540       -13.12342        15.46907
   C       -4.43307       -14.40228        15.86485
   C       -4.46842       -15.45109        14.98923
   F       -3.97482       -14.58040        17.11008
   F       -4.82718       -12.11444        16.34720
   C       -5.89487       -13.76465        11.97078
   C       -5.93107       -14.81525        11.09378
   C       -6.41948       -14.90864         9.72178
   C       -7.34338       -14.07690         9.14905
   C       -8.00660       -14.37934         7.94071
   N       -8.59534       -14.62362         6.98652
   C       -7.79727       -12.88351         9.74692
   N       -8.17733       -11.89504        10.18843
   H       -2.14145         2.15881         6.08355
   H       -2.42412        -1.86822         8.96016
   H       -2.66933         0.82225         4.11867
   H       -2.95681        -3.26586         6.95923
   H       -3.75636        -3.41676         0.73201
   H       -4.14003        -5.35992        -0.58550
   H       -4.59104        -9.65512         2.80852
   H       -5.11020       -10.98457        -1.70965
   H       -5.77938       -14.81973         0.15979
   H       -4.96970       -12.28257         4.08070
   H       -6.24113       -17.49899         5.29198
   H       -5.65073       -17.72522         7.85412
   H       -4.64398       -17.31367        13.03813
   H       -5.68658       -11.92770        13.91927
   H       -4.12609       -16.42325        15.30755
   H       -6.22438       -12.77704        11.68934
*
