# ORCA input file
# SCF done       -202.298390073926          0.000610637337
! CAM-B3LYP def2-SVP def2/J RIJCOSX Grid4 TightSCF
%maxcore 5000
%tddft
    Mode sTDDFT
    Ethresh 5.0
    maxcore 5000
end

%pal
  nprocs 6
  end
* xyz 0 1
   C        2.00135        -0.78341        -1.45648
   O        1.12225        -1.39325        -2.02660
   C        2.46730         0.57332        -1.82349
   C        3.52313         0.95986        -0.98303
   C        4.09934         2.20998        -1.13964
   C        3.61230         3.04711        -2.13709
   C        2.56788         2.64876        -2.97314
   C        1.98466         1.39848        -2.81738
  Br        1.93056         3.80617        -4.32489
  Br        4.39327         4.75665        -2.34727
   C        3.80399        -0.13415        -0.05533
   C        4.86414        -0.16729         0.81180
   C        5.78907         0.88864         0.96322
   N        6.57015         1.71151         1.13477
   C        5.22825        -1.24931         1.64328
   N        5.61649        -2.08124         2.33297
   C        2.81431        -1.17481        -0.28602
   C        2.65173        -2.25240         0.54714
   C        1.78000        -3.35407         0.49221
   C        0.86127        -3.79615        -0.44600
   C        0.20829        -4.97627        -0.08982
   C       -0.85171        -5.58509        -0.90236
   C       -0.62065        -5.83674        -2.26250
   C       -1.61830        -6.42623        -3.03223
   C       -2.82959        -6.75073        -2.45276
   C       -3.07893        -6.49651        -1.11676
   C       -2.09224        -5.90803        -0.33550
   O       -2.23903        -5.61038         0.98876
   C       -3.43037        -5.97898         1.63984
   O        0.60860        -5.49999        -2.72481
   C        0.91081        -5.73304        -4.07926
   C        0.63298        -5.46839         1.14312
   S        1.82324        -4.45419         1.85988
   C        0.14702        -6.63245         1.83128
   C       -0.04379        -6.65367         3.20894
   N       -0.63286        -7.62694         3.88430
   C       -1.08704        -8.71164         3.27938
   C       -0.89681        -8.86639         1.87814
   C       -0.25104        -7.80835         1.15152
   N       -0.10624        -8.10806        -0.13874
   S       -0.74245        -9.55308        -0.41122
   N       -1.22737        -9.88520         1.08697
   C       -1.76402        -9.67778         4.08462
   C       -2.29060       -10.89933         3.72500
   C       -2.90165       -11.56982         4.78784
   C       -3.50446       -12.89877         4.68819
   C       -3.15289       -13.90434         5.60590
   C       -3.71854       -15.16906         5.48925
   C       -4.62133       -15.42553         4.47465
   C       -4.97253       -14.45126         3.55894
   C       -4.41297       -13.18243         3.65643
   O       -4.70377       -12.14759         2.82277
   C       -5.61934       -12.36118         1.77536
   O       -2.23780       -13.55646         6.54444
   C       -1.73410       -14.54409         7.41181
   C       -2.83344       -10.84764         5.98433
   S       -2.00011        -9.33464         5.76203
   C       -3.50402       -11.19615         7.17471
   C       -3.36256       -10.69592         8.43427
   C       -4.47165       -10.84729         9.40729
   O       -5.42717       -11.58372         9.32309
   C       -4.18056        -9.85915        10.47223
   C       -2.93058        -9.26032        10.22803
   C       -2.33292        -9.88653         9.04937
   C       -0.99402        -9.92079         8.76934
   C       -0.41464       -10.80366         7.83225
   N        0.11840       -11.55614         7.14979
   C       -0.03018        -9.17489         9.47868
   N        0.78216        -8.57946        10.02833
   C       -2.46169        -8.27108        11.07456
   C       -3.24772        -7.89871        12.15942
   C       -4.47933        -8.50873        12.40455
   C       -4.95581        -9.49867        11.55451
  Br       -5.52104        -7.99107        13.89477
  Br       -2.62105        -6.53493        13.30879
   H        4.90516         2.55528        -0.51296
   H        1.17426         1.07829        -3.45364
   H        3.28820        -2.26546         1.42444
   H        0.66386        -3.26533        -1.35825
   H       -1.46017        -6.63685        -4.07687
   H       -3.59908        -7.21006        -3.05485
   H       -4.03759        -6.75427        -0.69739
   H       -3.60026        -7.06019         1.58970
   H       -4.29586        -5.45336         1.22545
   H       -3.29552        -5.68807         2.68068
   H        1.93112        -5.37811        -4.21506
   H        0.24398        -5.17328        -4.74241
   H        0.86302        -6.79851        -4.32544
   H        0.26144        -5.80429         3.80561
   H       -2.22209       -11.28262         2.72404
   H       -3.46445       -15.95244         6.18361
   H       -5.06086       -16.40808         4.39452
   H       -5.67795       -14.68853         2.78011
   H       -5.68684       -11.41033         1.24902
   H       -6.60893       -12.63481         2.15418
   H       -5.26716       -13.13241         1.08328
   H       -2.50709       -14.90906         8.09587
   H       -0.94805       -14.04899         7.97962
   H       -1.30467       -15.38436         6.85899
   H       -4.32442       -11.89819         7.05248
   H       -1.51703        -7.77801        10.90976
   H       -5.90753        -9.97391        11.73486
*
