# ORCA input file
# SCF done       -255.346744486283          0.000457576542
! CAM-B3LYP def2-SVP def2/J RIJCOSX Grid4 TightSCF
%maxcore 5000
%tddft
    Mode sTDDFT
    Ethresh 5.0
    maxcore 5000
end

%pal
  nprocs 6
  end
* xyz 0 1
   C       13.94358        -3.65976         4.66490
   C       13.85585        -2.37511         5.11293
   S       12.34346        -1.61463         4.76767
   C       11.80506        -3.03771         3.98341
   C       12.76095        -4.04742         4.01204
   C       12.21877        -5.24317         3.35382
   O       12.71754        -6.33541         3.22510
   C       10.89579        -4.79565         2.80519
   C       10.58430        -3.49064         3.37537
   C        9.35257        -2.91377         3.54037
   C        9.21341        -1.65590         4.16145
   N        9.09883        -0.62406         4.64955
   C        8.13608        -3.54765         3.21638
   N        7.12573        -4.06038         3.03230
   C       10.28618        -5.51574         1.83507
   C        9.27883        -5.09661         0.91999
   C        8.42289        -5.91059         0.23081
   C        7.55258        -5.22112        -0.64402
   C        6.50950        -5.75128        -1.43238
   C        6.24206        -7.17067        -1.52613
   C        5.02933        -7.79325        -1.61583
   C        5.14190        -9.19201        -1.76614
   C        6.42573        -9.65443        -1.81019
   S        7.53422        -8.33635        -1.64554
   C        6.90913       -11.04887        -1.96612
  Cl        3.76386       -10.21526        -1.88877
   C        5.75143        -4.83218        -2.15043
   C        5.98364        -3.43405        -2.12581
   C        7.01918        -2.90254        -1.32963
   C        7.78575        -3.82316        -0.62367
   S        9.09380        -3.41736         0.44646
   C        7.25810        -1.48139        -1.19635
   C        8.45505        -0.84009        -1.04453
   C        8.30893         0.54731        -0.83278
   C        7.01583         0.98330        -0.80921
   S        5.94003        -0.34665        -1.06589
   C        6.50282         2.35808        -0.58570
  Cl        9.66038         1.59146        -0.61959
   C        5.12155        -2.74137        -3.00662
   C        4.25077        -3.55509        -3.67503
   S        4.44966        -5.23738        -3.23560
   C        3.27945        -3.18095        -4.64321
   C        2.37569        -3.99965        -5.28924
   C        1.59233        -3.29338        -6.20452
   C        1.90950        -1.92704        -6.25313
   S        3.15784        -1.50800        -5.16671
   C        1.08945        -1.30611        -7.23224
   C        0.25170        -2.28016        -7.79729
   C        0.53233        -3.56001        -7.16479
   C       -0.06937        -4.75633        -7.42058
   C        0.29019        -5.93917        -6.73992
   N        0.57886        -6.90301        -6.19039
   C       -1.09296        -4.89260        -8.38242
   N       -1.92431        -5.00999        -9.16315
   C       -0.57642        -1.76884        -8.79843
   C       -0.37055        -0.41897        -8.99914
   S        0.85838         0.23580        -7.92753
   C       -0.99663         0.41724        -9.96286
   C       -0.76677         1.74479       -10.19135
   C       -1.51443         2.27362       -11.26803
   C       -1.51931         3.59775       -11.75195
   C       -0.68055         4.64223       -11.20041
   C       -0.99949         5.95854       -11.02451
   C        0.07616         6.72066       -10.51995
   C        1.22484         6.01266       -10.31773
   S        0.97918         4.35420       -10.74768
   C        2.53815         6.49004        -9.81738
  Cl       -0.06699         8.40417       -10.19112
   C       -2.36357         3.86004       -12.82733
   C       -3.19514         2.87567       -13.42359
   C       -3.22341         1.55830       -12.90808
   C       -2.35639         1.29299       -11.85593
   S       -2.18289        -0.24943       -11.06262
   C       -4.12010         0.56452       -13.45488
   C       -5.40367         0.73901       -13.89440
   C       -5.98658        -0.45873       -14.35681
   C       -5.16967        -1.55127       -14.28503
   S       -3.63752        -1.10388       -13.61898
   C       -5.45061        -2.95096       -14.68997
  Cl       -7.59658        -0.52218       -14.95740
   C       -3.86981         3.36468       -14.55947
   C       -3.61134         4.68338       -14.83512
   S       -2.48278         5.37298       -13.67038
   C       -4.04395         5.53997       -15.87673
   C       -5.00279         5.37822       -16.83136
   C       -5.26981         6.37952       -17.86513
   C       -4.58840         7.53299       -18.15699
   C       -5.01786         8.36729       -19.21199
   N       -5.36082         9.05194       -20.06623
   C       -3.43366         8.01907       -17.51384
   N       -2.48683         8.47687       -17.05236
   C       -6.41458         5.91090       -18.59339
   C       -6.85711         4.69078       -18.10439
   C       -7.97352         4.19304       -18.79662
   C       -8.34760         5.04580       -19.79288
   S       -7.36218         6.45931       -19.91213
   C       -6.00237         4.27740       -16.98528
   O       -6.11856         3.26753       -16.32499
   H       14.80163        -4.29213         4.79770
   H       14.60028        -1.81601         5.64547
   H       10.66726        -6.52139         1.68631
   H        8.39016        -6.97182         0.39451
   H        4.08397        -7.28956        -1.53875
   H        6.06062       -11.71778        -2.08476
   H        7.48319       -11.35700        -1.09262
   H        7.55527       -11.13614        -2.83895
   H        9.41297        -1.32008        -1.11958
   H        7.29818         3.07954        -0.75750
   H        6.15052         2.47085         0.44042
   H        5.67054         2.57155        -1.25331
   H        5.15039        -1.67843        -3.16229
   H        2.30761        -5.05484        -5.09422
   H       -1.29051        -2.33623        -9.36780
   H       -0.07907         2.31869        -9.59784
   H       -1.97215         6.37439       -11.20994
   H        2.44716         7.51899        -9.47857
   H        3.28825         6.44630       -10.60726
   H        2.88413         5.87024        -8.99153
   H       -5.93661         1.67079       -13.86318
   H       -6.49706        -3.04838       -14.96815
   H       -5.23143        -3.63682       -13.87311
   H       -4.83230        -3.23576       -15.54132
   H       -4.50100         2.76014       -15.18104
   H       -3.51228         6.48476       -15.89118
   H       -8.46602         3.26495       -18.57316
   H       -9.16005         4.92860       -20.48326
*
