# ORCA input file
# SCF done       -189.597108135302          0.000430527444
! CAM-B3LYP def2-SVP def2/J RIJCOSX Grid4 TightSCF
%maxcore 5000
%tddft
    Mode sTDDFT
    Ethresh 5.0
    maxcore 5000
end

%pal
  nprocs 6
  end
* xyz 0 1
   C       20.99839        -7.67815        -5.97351
   C       21.82558        -8.73396        -6.23878
   F       23.14958        -8.52400        -6.35980
   C       21.34842       -10.04243        -6.39143
   C       20.00624       -10.27491        -6.27132
   C       19.10810        -9.22354        -5.99757
   C       19.61350        -7.89939        -5.84749
   C       18.73081        -6.82613        -5.58112
   C       17.39101        -7.07449        -5.46369
   C       16.89223        -8.40264        -5.59956
   C       17.71964        -9.45438        -5.86603
   C       15.42998        -8.39598        -5.39610
   O       14.65977        -9.32600        -5.48741
   C       15.10005        -7.00341        -4.99399
   C       16.26029        -6.18058        -5.23274
   C       16.25537        -4.82850        -5.47814
   C       15.07496        -4.06321        -5.55038
   N       14.12579        -3.42621        -5.66672
   C       17.40841        -4.08300        -5.78840
   N       18.32071        -3.42729        -6.02631
   C       13.87670        -6.72629        -4.45294
   C       13.48476        -5.62863        -3.64679
   C       12.16089        -5.25137        -3.55052
   C       11.70166        -4.15159        -2.84105
   C       12.61452        -3.30664        -2.06754
   C       13.94100        -3.53224        -1.94928
   S       14.75412        -4.82570        -2.72088
   C       11.80298        -2.27145        -1.52997
   C       10.47772        -2.43406        -1.94785
   C        9.63573        -1.43734        -1.40121
   C       10.32657        -0.56654        -0.62080
   S       12.01880        -0.91287        -0.50613
   C       10.39648        -3.60805        -2.77531
   C        9.26369        -4.14216        -3.42499
   C        8.09901        -3.47522        -3.64797
   C        6.95894        -4.00866        -4.30201
   C        5.90206        -3.20283        -4.67240
   C        4.75004        -3.63383        -5.31995
   C        4.54127        -5.05109        -5.62878
   C        5.44169        -6.02286        -5.36580
   S        6.95886        -5.74124        -4.61914
   C        3.26296        -5.11444        -6.24549
   C        2.71103        -3.83337        -6.34328
   C        1.43276        -3.86772        -6.94762
   C        1.06578        -5.13162        -7.28385
   S        2.24244        -6.33638        -6.88814
   C        3.64104        -2.88778        -5.77872
   C        3.55510        -1.47914        -5.72115
   C        2.56527        -0.70778        -6.24110
   C        2.56277         0.71170        -6.21939
   C        3.48207         1.59027        -5.70158
   C        3.15672         2.94716        -5.90743
   C        1.92861         3.10345        -6.61311
   S        1.22414         1.55558        -6.98666
   C        1.41486         4.33336        -6.94077
   C        2.13960         5.46889        -6.56124
   C        3.36524         5.31410        -5.85248
   C        3.87743         4.08047        -5.52309
   S        4.07692         6.85828        -5.49619
   C        2.74564         7.70238        -6.29796
   C        1.81862         6.81979        -6.79651
   C        2.82340         9.11352        -6.31426
   C        1.99865        10.05533        -6.85148
   C        0.75176         9.93957        -7.59619
   O        0.15173         8.93022        -7.90088
   N        0.27984        11.19881        -7.95191
   C        1.02329        12.26612        -7.55950
   C        0.76861        13.59477        -7.78688
   C       -0.33276        14.11965        -8.48486
   N       -1.20762        14.61194        -9.04271
   C        1.66431        14.56790        -7.29648
   N        2.38709        15.36566        -6.90061
   S        2.43647        11.75448        -6.67429
   C       -0.94791        11.30987        -8.70239
   H       21.40027        -6.68276        -5.86600
   H       22.04844       -10.83587        -6.59994
   H       19.61482       -11.27469        -6.38501
   H       19.13850        -5.83409        -5.46681
   H       17.32175       -10.45212        -5.97562
   H       13.12146        -7.48959        -4.61487
   H       11.45566        -5.82800        -4.13395
   H       14.59019        -2.90190        -1.36227
   H        8.57426        -1.36409        -1.55030
   H        9.94251         0.28037        -0.08636
   H        9.35749        -5.14999        -3.80876
   H        8.02440        -2.43670        -3.36114
   H        6.00117        -2.15095        -4.43972
   H        5.27089        -7.05768        -5.61724
   H        0.79820        -3.01981        -7.12695
   H        0.15327        -5.44533        -7.75203
   H        4.38531        -0.98008        -5.24059
   H        1.72465        -1.16955        -6.73392
   H        4.37621         1.28194        -5.19094
   H        0.48547         4.43526        -7.47762
   H        4.80911         3.98320        -4.98877
   H        0.93505         7.13604        -7.31821
   H        3.69992         9.50908        -5.81195
   H       -1.30804        10.29379        -8.86642
   H       -0.77201        11.79578        -9.66231
   H       -1.69296        11.87702        -8.14401
*
