# ORCA input file
# SCF done       -209.770825602974          0.000873762037
! CAM-B3LYP def2-SVP def2/J RIJCOSX Grid4 TightSCF
%maxcore 5000
%tddft
    Mode sTDDFT
    Ethresh 5.0
    maxcore 5000
end

%pal
  nprocs 6
  end
* xyz 0 1
   C       -4.50387         3.19151         3.63670
   C       -4.59865         4.17904         2.66731
   C       -5.21842         3.93279         1.45029
   C       -5.77409         2.69317         1.17165
   C       -5.69108         1.70193         2.13522
   C       -5.04618         1.94422         3.36905
   C       -5.07425         0.72303         4.16370
   C       -4.64862         0.60131         5.45952
   C       -4.12659         1.66754         6.22327
   N       -3.69453         2.48545         6.90260
   C       -4.69789        -0.57644         6.23481
   N       -4.70787        -1.49415         6.92510
   C       -5.62241        -0.32410         3.30727
   C       -6.19573         0.33810         2.14014
   C       -7.22510        -0.11924         1.36139
   C       -7.88311        -1.35221         1.54412
   N       -8.48365        -2.32391         1.66138
   C       -7.82888         0.63431         0.33189
   N       -8.36623         1.19437        -0.51304
   C       -5.50672        -1.66460         3.55933
   C       -5.61629        -2.72072         2.63093
   C       -5.45809        -2.69335         1.25026
   C       -5.59748        -3.94917         0.68139
   C       -5.86188        -4.95969         1.63433
   S       -5.90895        -4.35428         3.22311
   C       -6.00873        -6.18603         0.94813
   C       -5.83631        -5.95845        -0.43127
   C       -5.58377        -4.54156        -0.64264
   C       -5.40951        -3.89246        -1.83016
   C       -5.42607        -4.57117        -3.06620
   N       -5.43370        -5.12968        -4.06749
   C       -5.20712        -2.49714        -1.87981
   N       -5.04283        -1.36240        -1.89997
   C       -5.96351        -7.11357        -1.19466
   C       -6.23778        -8.22709        -0.41461
   S       -6.33681        -7.82513         1.29723
   C       -6.42914        -9.56555        -0.85757
   C       -6.77504       -10.58817        -0.00264
   C       -6.97440       -11.90984        -0.38352
   C       -6.81213       -12.33116        -1.77597
   C       -6.47985       -11.49643        -2.78565
   S       -6.19384        -9.81889        -2.58287
   C       -7.08533       -13.72621        -1.77942
   C       -7.40682       -14.15820        -0.48868
   C       -7.67590       -15.54583        -0.46171
   C       -7.55800       -16.10726        -1.69362
   S       -7.11764       -14.99099        -2.93806
   C       -7.34824       -13.02615         0.40279
   C       -7.61814       -12.96022         1.78276
   C       -8.05246       -13.98086         2.57597
   C       -8.33530       -13.84144         3.95136
   C       -8.21679       -12.71498         4.76220
   C       -8.61608       -12.96282         6.06635
   C       -9.04673       -14.29034         6.27595
   S       -8.94804       -15.22558         4.84772
   C       -9.43479       -14.43227         7.62316
   C       -9.25202       -13.18755         8.27473
   C       -8.72485       -12.23242         7.32121
   C       -8.37986       -10.93289         7.55764
   C       -8.52162       -10.35915         8.83854
   N       -8.64885        -9.91238         9.88696
   C       -7.87017       -10.09957         6.54122
   N       -7.46456        -9.43000         5.70282
   C       -9.59331       -13.22384         9.61640
   C      -10.03304       -14.48094        10.01710
   S      -10.04649       -15.62395         8.67137
   C      -10.51168       -14.91181        11.26803
   C      -10.33793       -14.31309        12.48904
   C      -11.20687       -14.54055        13.63780
   C      -12.09995       -15.56377        13.81915
   C      -12.32293       -16.63203        12.92557
   N      -12.56000       -17.53018        12.24992
   C      -12.90791       -15.71352        14.96654
   N      -13.59012       -15.90384        15.86985
   C      -10.95723       -13.45352        14.57599
   C       -9.87322       -12.68132        14.10163
   C       -9.44837       -11.55758        14.79001
   C      -10.10621       -11.21321        15.96149
   C      -11.16081       -11.97847        16.43847
   C      -11.59829       -13.10266        15.75361
   C       -9.37263       -13.29390        12.88063
   C       -8.10682       -13.12888        12.38329
   C       -7.16859       -12.21328        12.90574
   N       -6.35789       -11.49791        13.28965
   C       -7.54110       -13.91725        11.36168
   N       -7.01460       -14.54539        10.55731
   H       -4.01075         3.39999         4.57167
   H       -4.17649         5.15260         2.86416
   H       -5.26842         4.71420         0.70770
   H       -6.24279         2.50785         0.21892
   H       -5.23945        -1.96627         4.56313
   H       -5.21089        -1.80030         0.70526
   H       -5.86856        -7.15709        -2.26477
   H       -6.89858       -10.32090         1.03865
   H       -6.37288       -11.83092        -3.80539
   H       -7.93816       -16.12021         0.40711
   H       -7.70501       -17.13579        -1.95948
   H       -7.47847       -11.99095         2.24017
   H       -8.21630       -14.95944         2.15343
   H       -7.85645       -11.76746         4.40789
   H       -9.57245       -12.37267        10.27272
   H      -11.14638       -15.78708        11.23044
   H       -8.63779       -10.95012        14.42160
   H       -9.79261       -10.33601        16.50625
   H      -11.65587       -11.69385        17.35431
   H      -12.42468       -13.67881        16.13572
*
