# ORCA input file
# SCF done       -246.265001085144          0.000538465849
! CAM-B3LYP def2-SVP def2/J RIJCOSX Grid4 TightSCF
%maxcore 5000
%tddft
    Mode sTDDFT
    Ethresh 5.0
    maxcore 5000
end

%pal
  nprocs 6
  end
* xyz 0 1
   C       -0.94223        -2.63088         1.45029
   C       -0.97413        -1.99403         2.65309
   C       -0.96919        -0.59492         2.49225
   C       -0.93283        -0.21181         1.14725
   S       -0.90531        -1.55330         0.09301
   C       -0.92902         1.21228         1.07930
   C       -0.96425         1.71783         2.38418
   C       -0.99006         0.59893         3.31805
   C       -1.02408         0.66694         4.68000
   C       -1.04061         1.89560         5.37317
   N       -1.05434         2.88939         5.94510
   C       -1.04397        -0.48784         5.49001
   N       -1.05981        -1.42279         6.15376
   C       -0.96170         3.11441         2.42632
   C       -0.92421         3.66795         1.16340
   S       -0.89182         2.44754        -0.09864
   C       -0.90182         5.04999         0.82882
   C       -0.86037         5.61468        -0.41368
   C       -0.83597         7.02995        -0.39581
   C       -0.77205         7.91831        -1.48907
   C       -0.64437         7.46354        -2.85836
   C       -1.18896         8.01745        -3.98174
   C       -0.79881         7.35332        -5.16444
   C        0.04929         6.30236        -4.97232
   S        0.37393         6.11121        -3.28297
   C        0.65065         5.39070        -5.97803
  Cl       -1.35580         7.84619        -6.71745
   C       -0.80961         9.27872        -1.18967
   C       -0.86574         9.77612         0.13548
   C       -0.88378         8.88911         1.23117
   C       -0.89539         7.53487         0.92819
   S       -0.92766         6.24975         2.10312
   C       -0.86645         9.37936         2.59470
   C       -0.10835        10.38988         3.11284
   C       -0.34826        10.59955         4.48830
   C       -1.28386         9.76776         5.03123
   S       -1.88689         8.68375         3.82366
   C       -1.78122         9.70949         6.42846
  Cl        0.48182        11.81156         5.38938
   C       -0.90121        11.18853         0.16693
   C       -0.83694        11.76911        -1.06916
   S       -0.75280        10.58113        -2.34724
   C       -0.82549        13.16998        -1.38077
   C       -0.82693        14.16314        -0.41716
   C       -0.78110        15.51440        -0.75242
   F       -0.77707        16.37201         0.28816
   C       -0.73209        16.01928        -2.04648
   C       -0.74979        15.01904        -3.05909
   C       -0.79130        13.61909        -2.72537
   N       -0.79122        12.84546        -3.80661
   S       -0.74442        13.77353        -5.11534
   N       -0.72230        15.20145        -4.37861
   C       -0.64003        17.41864        -2.35645
   C       -0.62016        17.97755        -3.60473
   C       -0.47515        19.38251        -3.59976
   C       -0.39474        20.25531        -4.70613
   C       -0.41025        19.78171        -6.07513
   C       -1.00562        20.36642        -7.15665
   C       -0.77689        19.65762        -8.35532
   C       -0.00260        18.54316        -8.21500
   S        0.45524        18.34693        -6.55749
   C        0.43452        17.57408        -9.25162
  Cl       -1.43103        20.17155        -9.86376
   C       -0.27781        21.60992        -4.41582
   C       -0.20520        22.12314        -3.09657
   C       -0.25748        21.24821        -1.99444
   C       -0.41567        19.89710        -2.28027
   S       -0.50412        18.62955        -1.09828
   C       -0.12646        21.73922        -0.63691
   C        0.76089        22.65904        -0.15673
   C        0.60594        22.89328         1.22692
   C       -0.39307        22.17072         1.81205
   S       -1.16515        21.16184         0.63672
   C       -0.83905        22.17720         3.22801
  Cl        1.60600        23.99942         2.08916
   C       -0.08844        23.53356        -3.07854
   C       -0.03596        24.09514        -4.32294
   S       -0.15022        22.89129        -5.59079
   C        0.09328        25.47654        -4.64526
   C        0.26302        26.52880        -3.76647
   C        0.36403        27.75223        -4.43253
   C        0.26870        27.62628        -5.82401
   S        0.05733        26.00668        -6.31663
   C        0.38495        28.92436        -6.40189
   C        0.55571        29.85823        -5.37405
   C        0.55048        29.15981        -4.10204
   C        0.69337        29.69850        -2.85661
   C        0.87720        31.08175        -2.65153
   N        1.02915        32.20516        -2.47832
   C        0.66702        28.90673        -1.68970
   N        0.64294        28.26448        -0.73977
   C        0.67874        31.17500        -5.85856
   C        0.59994        31.21210        -7.21698
   S        0.37536        29.65437        -7.94401
   H       -0.93771        -3.68622         1.26503
   H       -0.99947        -2.50424         3.59852
   H       -0.98515         3.71188         3.31989
   H       -0.85870         5.02340        -1.31101
   H       -1.87081         8.84670        -3.97707
   H        0.36746         5.71128        -6.97743
   H        0.30574         4.36831        -5.82434
   H        1.73700         5.39299        -5.89803
   H        0.62955        10.93607         2.55470
   H       -1.27473        10.45980         7.03040
   H       -1.59706         8.72557         6.85828
   H       -2.85454         9.89377         6.46215
   H       -0.99643        11.74537         1.07981
   H       -0.85360        13.91781         0.63185
   H       -0.71281        17.37918        -4.49025
   H       -1.61823        21.24719        -7.10796
   H        0.02434        17.86090       -10.21666
   H        0.09339        16.56917        -9.00501
   H        1.52161        17.55122        -9.32221
   H        1.52887        23.12186        -0.74865
   H       -0.11705        22.71503         3.83754
   H       -0.93798        21.15965         3.60183
   H       -1.80889        22.66636         3.32272
   H       -0.06779        24.10912        -2.17254
   H        0.31372        26.40434        -2.70096
   H        0.81718        32.04576        -5.24418
   H        0.66003        32.07032        -7.85567
*
