# ORCA input file
# SCF done       -209.175755818625          0.000592411205
! CAM-B3LYP def2-SVP def2/J RIJCOSX Grid4 TightSCF
%maxcore 5000
%tddft
    Mode sTDDFT
    Ethresh 5.0
    maxcore 5000
end

%pal
  nprocs 6
  end
* xyz 0 1
   C        3.85565         7.30841        -5.62358
   C        4.87201         7.10452        -4.76217
   C        4.90266         5.77790        -4.23946
   C        5.80681         5.22466        -3.31444
   C        6.86121         5.99685        -2.68602
   C        8.13191         5.59473        -2.39168
   C        8.87588         6.58563        -1.71476
   C        8.19283         7.74075        -1.47224
   S        6.58483         7.61649        -2.10216
   C        8.65672         8.97397        -0.78765
  Cl       10.51220         6.33726        -1.23987
   C        5.62867         3.88077        -3.00013
   C        4.57896         3.08857        -3.52756
   C        3.65953         3.64888        -4.43508
   C        3.86478         4.98284        -4.78010
   S        2.87249         5.90905        -5.87373
   C        2.54287         2.90002        -4.97466
   C        2.03374         2.94867        -6.24071
   C        0.90248         2.12095        -6.40759
   C        0.52499         1.44417        -5.28515
   S        1.59509         1.82555        -3.97922
   C       -0.60758         0.50201        -5.09977
  Cl        0.07866         1.98685        -7.91379
   C        4.62581         1.76177        -3.03794
   C        5.64222         1.53802        -2.15441
   S        6.61378         2.96909        -1.88680
   C        5.95117         0.31731        -1.49943
   C        6.98732         0.00391        -0.65170
   S        8.29771         0.93028        -0.00050
   C        8.84149        -0.47493         0.91586
   C       10.03968        -0.33890         1.78099
   C        8.07263        -1.56834         0.72250
   C        6.99980        -1.34308        -0.18747
   C        5.93786        -2.07947        -0.68089
   S        4.94044        -1.08729        -1.71525
   C        5.60499        -3.46384        -0.48041
   C        4.28840        -3.92822        -0.43731
   C        3.95487        -5.29357        -0.26228
   N        2.61742        -5.54418        -0.17959
   C        1.93112        -4.47910        -0.29860
   S        2.82278        -2.99496        -0.52229
   C        4.94792        -6.27311        -0.14840
   C        6.25902        -5.82302        -0.19492
   C        6.59770        -4.45376        -0.35748
   N        7.93720        -4.22688        -0.45218
   C        8.61289        -5.30422        -0.37980
   S        7.70781        -6.78347        -0.17996
   C        4.58024        -7.68149        -0.04348
   C        5.00975        -8.52237         0.97353
   C        4.60593        -9.87667         1.06305
   N        5.09463       -10.53530         2.14824
   C        5.81645        -9.77891         2.87734
   S        6.01462        -8.13244         2.33679
   C        3.79448       -10.47228         0.07915
   C        3.35519        -9.61783        -0.93418
   C        3.72482        -8.24902        -0.99338
   N        3.20098        -7.56926        -2.05157
   C        2.44124        -8.29836        -2.75909
   S        2.26944        -9.96487        -2.24505
   C        3.44720       -11.85700         0.22699
   C        3.20595       -12.79744        -0.71680
   C        2.49405       -14.05415        -0.33081
   O        2.28968       -14.45305         0.79062
   C        2.05115       -14.65134        -1.60476
   C        1.24479       -15.73346        -1.81096
   C        0.91568       -16.10586        -3.13347
   C        1.42786       -15.34127        -4.22239
   C        1.08410       -15.70985        -5.53766
   C        0.27253       -16.79093        -5.74143
   C       -0.23796       -17.55741        -4.68470
   C        0.08462       -17.21298        -3.40162
   F       -0.05755       -17.14391        -6.99672
   C        2.26981       -14.23134        -3.97965
   C        2.58200       -13.89567        -2.68990
   C        3.42281       -12.83354        -2.14878
   C        4.38495       -12.14915        -2.84265
   C        5.32954       -11.28911        -2.24586
   N        6.14010       -10.60303        -1.80991
   C        4.59048       -12.27769        -4.23213
   N        4.78347       -12.33117        -5.36217
   H        3.61201         8.20740        -6.15488
   H        5.58797         7.86270        -4.50590
   H        8.54505         4.64371        -2.67102
   H        9.70038         8.86329        -0.50411
   H        8.06501         9.16196         0.10796
   H        8.55631         9.83850        -1.44295
   H        2.46172         3.52099        -7.04221
   H       -1.09418         0.32301        -6.05535
   H       -1.33900         0.91304        -4.40393
   H       -0.25545        -0.44591        -4.69503
   H        3.94575         0.98320        -3.33040
   H       10.90747        -0.05538         1.18611
   H       10.24763        -1.28010         2.28361
   H        9.88402         0.43790         2.52928
   H        8.25668        -2.51343         1.19632
   H        0.85930        -4.45718        -0.26446
   H        9.68351        -5.33405        -0.43505
   H        6.28959       -10.10619         3.78247
   H        1.92636        -7.95961        -3.63631
   H        3.33976       -12.18830         1.25527
   H        0.85928       -16.29748        -0.97488
   H        1.46210       -15.14478        -6.37529
   H       -0.87338       -18.40004        -4.90670
   H       -0.29702       -17.78781        -2.57129
   H        2.63687       -13.66478        -4.82067
*
