# ORCA input file
# SCF done       -283.534495354760          0.000392225291
! CAM-B3LYP def2-SVP def2/J RIJCOSX Grid4 TightSCF
%maxcore 5000
%tddft
    Mode sTDDFT
    Ethresh 5.0
    maxcore 5000
end

%pal
  nprocs 6
  end
* xyz 0 1
   C       -1.08899        -1.86114        -1.39650
   O       -0.89730        -1.03266        -2.26285
   N       -2.37411        -2.27991        -1.12023
   C       -3.43788        -1.68906        -1.91563
   C       -2.72053        -3.21086        -0.16485
   O       -3.86330        -3.55801         0.01903
   N       -1.68506        -3.72398         0.58996
   C       -2.08338        -4.67508         1.61584
   C       -0.34070        -3.40922         0.46898
   O        0.45944        -3.90508         1.23899
   C       -0.00458        -2.47779        -0.60657
   C        1.24797        -2.08849        -1.00013
   C        2.56229        -2.42272        -0.60622
   C        3.07136        -3.25341         0.36110
   C        4.47809        -3.31542         0.38245
   C        5.29456        -4.04844         1.27482
   C        4.75000        -4.94140         2.27451
   C        5.21664        -5.16104         3.54144
   C        4.47626        -6.14240         4.23102
   C        3.45590        -6.69197         3.50757
   S        3.39064        -5.97750         1.93586
   C        2.48515        -7.73834         3.91506
  Cl        4.84567        -6.60210         5.84867
   C        6.66625        -3.88109         1.13123
   C        7.25700        -3.04423         0.14920
   C        6.44509        -2.30874        -0.73663
   C        5.06906        -2.47423        -0.59903
   S        3.85631        -1.65985        -1.53316
   C        6.99096        -1.40634        -1.72968
   C        6.53576        -1.17861        -2.99706
   C        7.26840        -0.17666        -3.66884
   C        8.27313         0.37985        -2.93200
   S        8.33316        -0.35342        -1.36610
   C        9.21798         1.45996        -3.31198
  Cl        6.91142         0.29421        -5.28578
   C        8.66970        -3.12405         0.17267
   C        9.15619        -3.96680         1.12873
   S        7.88067        -4.71070         2.06696
   C       10.51896        -4.26998         1.41113
   C       10.99701        -5.10951         2.37397
   C       12.40940        -5.19951         2.40061
   C       13.21086        -5.99383         3.24582
   C       12.62323        -6.75184         4.33058
   C       11.62198        -6.36296         5.17463
   C       11.29167        -7.35571         6.12173
   C       12.02416        -8.50229         6.01560
   S       13.16329        -8.36203         4.71917
   C       11.94003        -9.73903         6.83220
  Cl       10.06038        -7.12131         7.30374
   C       14.57767        -5.98695         2.99063
   C       15.17070        -5.19696         1.97462
   C       14.37132        -4.38680         1.14228
   C       13.00425        -4.40536         1.38867
   S       11.80273        -3.53787         0.47216
   C       14.96437        -3.59651         0.08234
   C       15.96419        -3.95683        -0.77536
   C       16.31961        -2.92030        -1.66524
   C       15.60646        -1.76841        -1.50227
   S       14.45232        -1.95976        -0.22551
   C       15.71253        -0.49565        -2.25936
  Cl       17.56446        -3.10714        -2.84145
   C       16.57984        -5.31677         1.97158
   C       17.05940        -6.18086         2.91434
   S       15.78085        -6.87589         3.88290
   C       18.42495        -6.53993         3.12346
   C       19.48771        -6.18602         2.34109
   C       20.72288        -6.70559         2.79041
   C       21.98617        -6.56075         2.18114
   C       22.15231        -5.72412         1.00966
   C       21.59663        -4.49981         0.76943
   C       21.94569        -3.98198        -0.49650
   C       22.76191        -4.79185        -1.23128
   S       23.12477        -6.23359        -0.34301
   C       23.31454        -4.56975        -2.59099
  Cl       21.36781        -2.45727        -1.05321
   C       23.03878        -7.25492         2.76581
   C       22.88625        -8.04744         3.93488
   C       21.61728        -8.19820         4.54218
   C       20.56791        -7.50287         3.95378
   S       18.90264        -7.54748         4.46811
   C       21.44000        -9.06452         5.68630
   C       22.04854       -10.26277         5.94219
   C       21.63134       -10.83151         7.16340
   C       20.71305       -10.09072         7.85136
   S       20.33491        -8.64988         6.97132
   C       20.07531       -10.38171         9.15965
  Cl       22.24389       -12.33732         7.72719
   C       24.10966        -8.59509         4.36526
   C       25.17352        -8.30046         3.55136
   S       24.68816        -7.24402         2.22516
   C       26.53978        -8.65741         3.61568
   C       27.21359        -9.63558         4.29558
   C       26.60428       -10.71468         5.07541
   O       25.40737       -10.89004         5.19864
   N       27.48935       -11.59391         5.67414
   C       28.86544       -11.56024         5.56999
   O       29.56364       -12.36799         6.13415
   N       29.40172       -10.56294         4.78303
   C       28.67804        -9.59557         4.11585
   O       29.23788        -8.75943         3.43627
   C       30.85077       -10.56174         4.66490
   C       26.95269       -12.68027         6.47882
   H       -3.39137        -0.60402        -1.82992
   H       -4.38710        -2.06400        -1.54250
   H       -3.30732        -1.96179        -2.96276
   H       -2.50457        -5.56506         1.14891
   H       -2.84044        -4.22501         2.25640
   H       -1.19904        -4.93287         2.19252
   H        1.21566        -1.37403        -1.82127
   H        2.43181        -3.78211         1.04097
   H        6.02817        -4.61956         3.99046
   H        2.57157        -8.61451         3.27294
   H        1.46548        -7.36331         3.83439
   H        2.67439        -8.03408         4.94395
   H        5.73316        -1.72312        -3.45807
   H        9.17031         1.62708        -4.38529
   H       10.23628         1.19506        -3.03319
   H        8.96107         2.38978        -2.80346
   H        9.31650        -2.59348        -0.50145
   H       10.34762        -5.67017         3.02109
   H       11.16361        -5.39164         5.15909
   H       11.20283        -9.60799         7.62034
   H       12.90552        -9.96712         7.28187
   H       11.64904       -10.58827         6.21446
   H       16.40454        -4.93611        -0.81020
   H       15.69788         0.35616        -1.58223
   H       14.87595        -0.39090        -2.95092
   H       16.63773        -0.48388        -2.83044
   H       17.21653        -4.75768         1.31320
   H       19.38638        -5.60435         1.44507
   H       20.99801        -3.95981         1.47961
   H       22.99218        -5.35845        -3.27009
   H       24.40372        -4.57328        -2.56672
   H       22.97201        -3.61177        -2.97437
   H       22.74368       -10.74876         5.28302
   H       20.39189       -11.36048         9.51130
   H       18.99013       -10.36885         9.06785
   H       20.35762        -9.63281         9.89936
   H       24.21787        -9.16332         5.26654
   H       27.18900        -8.04691         2.99163
   H       31.18318       -11.48610         4.19339
   H       31.29761       -10.49387         5.65595
   H       31.13257        -9.70469         4.05854
   H       25.87599       -12.54750         6.54618
   H       27.40521       -12.65512         7.46906
   H       27.18473       -13.63725         6.01217
*
