# ORCA input file
# SCF done       -132.229552687190          0.000156972727
! CAM-B3LYP def2-SVP def2/J RIJCOSX Grid4 TightSCF
%maxcore 5000
%tddft
    Mode sTDDFT
    Ethresh 5.0
    maxcore 5000
end

%pal
  nprocs 6
  end
* xyz 0 1
   C        0.44634         6.71641         3.07561
   S        0.12375         5.19437         2.36426
   C        1.17370         5.56125         1.03479
   C        1.74897         6.80723         1.15497
   C        1.31392         7.45453         2.33161
   S        1.84301         9.10047         2.77426
   O        2.92576         9.00523         3.71642
   O        0.69249         9.86993         3.16327
   C        2.50377         9.69696         1.19011
   C        3.44948         8.61768         0.70434
   C        2.69618         7.40349         0.16541
   C        1.30939         4.57406        -0.01114
   N        0.64343         3.43304         0.18697
   C        0.73097         2.52028        -0.76473
   C        1.46800         2.71981        -1.91678
   C        2.14472         3.94496        -2.03780
   N        2.05190         4.86528        -1.06878
   C        2.94169         4.24864        -3.19578
   C        3.69252         5.37421        -3.28480
   C        4.51323         5.77119        -4.36393
   C        5.62510         6.60803        -4.26617
   C        6.16901         7.30235        -3.16303
   C        7.31518         8.01967        -3.33177
   C        7.96143         8.09237        -4.59334
   C        7.46571         7.44453        -5.68287
   C        6.29577         6.66281        -5.54929
   C        5.59413         5.88237        -6.46477
   C        4.41535         5.35661        -5.77125
   C        3.36106         4.77057        -6.35387
   C        5.94023         5.66949        -7.84171
   N        5.02871         5.13284        -8.67136
   C        5.38306         4.95223        -9.92741
   C        6.63751         5.28543       -10.41126
   C        7.53668         5.82073        -9.47797
   N        7.17587         6.00897        -8.21495
   C        8.89139         6.17243        -9.85788
   C        9.81563         6.57165        -8.96936
   C       11.16321         6.90820        -9.28834
   S       11.82195         6.81777       -10.89854
   C       13.36641         7.31435       -10.33765
   C       13.39402         7.54883        -8.99284
   C       12.13028         7.32254        -8.40645
   S       11.82264         7.50849        -6.65802
   O       11.69928         6.19867        -6.07971
   O       10.73325         8.42728        -6.45743
   C       13.36268         8.27334        -6.06197
   C       14.51929         7.58228        -6.75334
   C       14.60311         7.98426        -8.22535
   H       -0.01454         7.00746         3.99760
   H        3.00966        10.63697         1.39317
   H        1.65744         9.85965         0.52882
   H        4.07395         8.32192         1.55085
   H        4.10147         9.00888        -0.08041
   H        3.40111         6.62779        -0.13988
   H        2.13245         7.68205        -0.73094
   H        0.18561         1.60186        -0.58688
   H        1.52837         1.97062        -2.68951
   H        2.95562         3.50079        -3.97448
   H        3.70779         6.01009        -2.40906
   H        5.67462         7.25955        -2.20343
   H        7.74559         8.55611        -2.49829
   H        8.86719         8.67098        -4.69236
   H        7.95363         7.51244        -6.63959
   H        3.38359         4.55314        -7.40834
   H        2.46345         4.54356        -5.80383
   H        4.62396         4.52270       -10.57127
   H        6.91236         5.13310       -11.44201
   H        9.13846         6.08290       -10.90842
   H        9.55789         6.64100        -7.92170
   H       14.17600         7.40365       -11.03479
   H       13.37317         8.12322        -4.98559
   H       13.30067         9.33358        -6.29191
   H       14.37007         6.50295        -6.67110
   H       15.45922         7.83464        -6.25719
   H       15.49263         7.54530        -8.68203
   H       14.70367         9.07249        -8.29740
*
