# ORCA input file
# SCF done       -233.983792290695          0.000645263795
! CAM-B3LYP def2-SVP def2/J RIJCOSX Grid4 TightSCF
%maxcore 5000
%tddft
    Mode sTDDFT
    Ethresh 5.0
    maxcore 5000
end

%pal
  nprocs 6
  end
* xyz 0 1
   C       -1.38167         2.13798        -3.59911
   C       -1.17563         1.11144        -2.71375
   C       -0.48771        -0.07819        -3.03070
   N        0.06856        -1.06324        -3.22696
   C       -1.64180         1.07412        -1.38264
   N       -2.00042         0.95161        -0.29831
   C       -0.98565         2.13623        -5.00108
   C       -1.49670         3.30398        -5.61553
   C       -1.29751         3.59184        -6.94374
   C       -0.55932         2.67993        -7.70482
   C       -0.04823         1.51656        -7.08160
   C       -0.24804         1.22727        -5.73779
   S        0.83899         0.52859        -8.20310
   C        0.51230         1.67450        -9.47626
   C       -0.22135         2.74291        -9.08453
  Br        1.17148         1.35221       -11.20250
   C       -2.23660         4.10902        -4.62098
   O       -2.76407         5.17904        -4.83187
   C       -2.10680         3.37092        -3.33812
   C       -2.40909         3.84365        -2.09572
   C       -3.20640         4.97615        -1.72899
   C       -2.92232         5.61337        -0.50397
   C       -3.66228         6.69881        -0.11768
   C       -4.72936         7.15563        -0.91685
   C       -5.05146         6.50276        -2.09995
   C       -4.29043         5.42548        -2.49942
   C       -5.33397         8.29336        -0.26794
   C       -4.64576         8.54609         0.93280
   C       -3.52504         7.55060         1.12291
   C       -3.72606         6.71644         2.40203
   C       -5.06656         5.99220         2.43222
   C       -2.15348         8.24969         1.17200
   C       -1.87694         9.09839        -0.06326
   C       -5.02609         9.58188         1.74803
   C       -6.11726        10.39341         1.38995
   C       -6.78354        10.13213         0.18197
   C       -6.40368         9.09628        -0.64327
   C       -6.49627        11.46447         2.27556
   C       -7.64075        12.18093         2.19488
   C       -8.06202        13.24287         3.03618
   S       -9.75387        13.63994         3.01649
   C       -9.59595        14.89043         4.20261
   C       -8.26018        14.99054         4.62582
   C       -7.38891        14.08193         3.93446
   C       -5.99992        14.14472         4.17191
   C       -5.52242        15.00093         5.11876
   F       -4.19826        15.07292         5.34556
   C       -6.39518        15.80692         5.88258
   F       -5.88082        16.58567         6.85004
   C       -7.73836        15.81489         5.64455
   C      -10.75927        15.61598         4.55666
   C      -10.77370        16.84035         5.14524
   N      -11.88572        17.47950         5.54963
   N      -13.17989        16.95227         5.62236
   C      -13.74469        17.55880         6.82568
   C      -13.49189        16.73771         8.09894
   C      -12.03043        16.35954         8.33111
   C      -14.14372        17.47614         9.28482
   C      -13.95876        19.02589         9.24372
   N      -13.64361        19.37390        10.61853
   S      -12.55383        18.13007        11.16818
   N      -13.62879        16.96402        10.55003
   C      -12.90596        19.54655         8.24276
   C      -13.01331        21.07465         8.18973
   C      -13.09782        18.95924         6.83693
   N      -11.85821        18.74988         6.06593
   C      -11.26522        19.66568         5.24159
   C      -10.68653        20.86655         5.53878
   C      -10.51007        21.85473         4.44281
   O      -10.65203        21.65651         3.25579
   C      -10.19168        23.12855         5.11864
   C      -10.03863        24.37321         4.58227
   C       -9.76531        25.46491         5.43911
   C       -9.64963        25.24143         6.84175
   C       -9.38690        26.33460         7.68859
   C       -9.24573        27.58341         7.14914
   C       -9.35229        27.82339         5.77346
   C       -9.60804        26.77192         4.93675
   F       -8.99671        28.62951         7.95843
   C       -9.79523        23.93587         7.36890
   C      -10.06237        22.89879         6.51910
   C      -10.22884        21.46995         6.76129
   C       -9.75926        20.78122         7.86028
   C       -9.62402        19.38746         7.81377
   N       -9.48406        18.24935         7.72196
   C       -9.33066        21.38965         9.05080
   N       -9.03463        21.85308        10.05952
   H       -1.70123         4.49135        -7.38152
   H        0.16725         0.33098        -5.30849
   H       -0.51290         3.54374        -9.73927
   H       -1.96458         3.32358        -1.25421
   H       -2.10470         5.25096         0.10285
   H       -5.88730         6.83064        -2.69888
   H       -4.55181         4.89805        -3.40107
   H       -3.65332         7.38021         3.26604
   H       -2.91812         5.98555         2.47373
   H       -5.88908         6.70245         2.38129
   H       -5.16120         5.42116         3.35275
   H       -5.15260         5.30617         1.59250
   H       -1.37686         7.48834         1.27072
   H       -2.11560         8.88166         2.06170
   H       -1.89022         8.48680        -0.96278
   H       -0.89984         9.56890         0.01818
   H       -2.62691         9.87918        -0.16913
   H       -4.50150         9.77948         2.67228
   H       -7.60505        10.76384        -0.11800
   H       -6.92791         8.91469        -1.56960
   H       -5.81102        11.64853         3.08978
   H       -8.37414        11.90284         1.44858
   H       -5.30707        13.55098         3.60181
   H       -8.36979        16.42748         6.26539
   H      -11.69471        15.16042         4.26021
   H       -9.87404        17.40860         5.31432
   H      -13.13697        15.93748         5.68728
   H      -14.82586        17.65081         6.67742
   H      -14.04420        15.79604         7.98578
   H      -11.35402        17.20666         8.30178
   H      -11.69940        15.63514         7.58904
   H      -11.94313        15.89521         9.30891
   H      -15.21868        17.26824         9.24631
   H      -14.92306        19.49204         9.00398
   H      -13.24239        20.29505        10.73253
   H      -14.37638        16.79705        11.21489
   H      -11.92327        19.25426         8.62110
   H      -14.05753        21.37622         8.11949
   H      -12.49353        21.47543         7.32522
   H      -12.58374        21.53462         9.07697
   H      -13.73525        19.64516         6.26189
   H      -11.22326        19.37331         4.19336
   H      -10.12474        24.52645         3.51707
   H       -9.29401        26.18597         8.75308
   H       -9.23062        28.82928         5.40424
   H       -9.69451        26.93228         3.87260
   H       -9.70153        23.79025         8.43369
*
