# ORCA input file
# SCF done       -185.018123926512          0.000512478894
! CAM-B3LYP def2-SVP def2/J RIJCOSX Grid4 TightSCF
%maxcore 5000
%tddft
    Mode sTDDFT
    Ethresh 5.0
    maxcore 5000
end

%pal
  nprocs 6
  end
* xyz 0 1
   C       -5.92980        -0.65215         2.03416
   C       -5.14559        -1.62591         1.46477
   C       -4.78418        -2.82721         2.10704
   N       -4.45481        -3.82446         2.57222
   C       -4.60244        -1.58986         0.16459
   N       -4.12511        -1.65001        -0.87886
   C       -6.51567        -0.72351         3.37046
   C       -7.31694         0.42501         3.57680
   C       -7.99894         0.65265         4.74645
   C       -7.88034        -0.29674         5.76729
   C       -7.07529        -1.43948         5.55359
   C       -6.38927        -1.67219         4.36769
   S       -7.05829        -2.47936         6.94672
   C       -8.11897        -1.37820         7.78472
   C       -8.46964        -0.28884         7.06163
  Br       -8.66149        -1.76930         9.53779
   C       -7.26076         1.28342         2.37359
   O       -7.85206         2.33325         2.21837
   C       -6.34306         0.59885         1.43867
   C       -5.91348         1.11511         0.24025
   C       -6.29585         2.35652        -0.29140
   C       -5.73264         2.84172        -1.43863
   C       -6.01255         4.10102        -1.99305
   O       -6.94253         4.93939        -1.46169
   C       -6.93383         6.09364        -2.16921
   C       -5.98253         6.00234        -3.18643
   C       -5.39946         4.73022        -3.08384
   O       -4.43629         4.20363        -3.85847
   O       -5.63861         6.91475        -4.13468
   C       -7.79866         7.16684        -1.84535
   C       -8.82266         7.07569        -0.95529
   C       -9.69963         8.13107        -0.58777
   C       -9.42542         9.45040        -0.77900
   C      -10.21078        10.58807        -0.48579
   S       -9.48100        12.12331        -0.94930
   C      -10.88945        12.98445        -0.45704
   C      -11.22753        14.33922        -0.38770
   C      -12.47316        14.51865         0.15835
   C      -13.13083        15.81703         0.35068
   O      -12.59945        16.85427         0.05465
   O      -14.37071        15.79418         0.87096
   S      -13.23389        12.99996         0.59369
   C      -11.87297        12.11484         0.01180
   C      -11.50949        10.74303         0.02379
   C      -12.32940         9.68744         0.52974
   C      -13.68105         9.57424         0.37546
   C      -14.51088         8.56186         0.93331
   C      -15.81659         8.63227         0.55900
   C      -16.10604         9.69727        -0.32242
   S      -14.64567        10.60168        -0.67415
   C      -17.31444        10.07124        -0.87181
   C      -18.58072         9.45868        -0.73101
   C      -19.57479        10.09130        -1.41107
   C      -19.16534        11.24528        -2.13025
   S      -17.43714        11.48076        -1.89846
   C      -19.98672        12.03998        -2.88498
   C      -19.67332        13.20625        -3.61704
   C      -20.59620        13.92607        -4.38192
   C      -19.93945        15.03391        -4.97291
   C      -20.38798        16.03423        -5.80707
   C      -19.46038        17.00348        -6.22122
   C      -19.59377        18.11448        -7.04321
   C      -18.33101        18.77853        -7.14049
   C      -17.41775        18.07473        -6.37595
   C      -18.07729        16.95407        -5.78166
   C      -17.62549        15.96220        -4.95418
   C      -18.55473        14.98315        -4.53974
   C      -18.40664        13.87783        -3.72564
   C      -18.03505        19.97262        -7.89522
   C      -18.90298        20.65556        -8.63660
   H       -8.60198         1.53819         4.87266
   H       -5.78640        -2.55768         4.25667
   H       -9.11511         0.49014         7.42441
   H       -5.19660         0.54572        -0.33758
   H       -7.02564         2.95081         0.23692
   H       -4.98946         2.26370        -1.97135
   H       -4.19109         4.85392        -4.53037
   H       -6.16983         7.71134        -4.03107
   H       -7.62439         8.08950        -2.38235
   H       -9.01145         6.10697        -0.51364
   H      -10.62192         7.83189        -0.11669
   H       -8.46654         9.70112        -1.21624
   H      -10.60863        15.15490        -0.71157
   H      -14.68561        14.89886         1.05591
   H      -11.83230         8.90280         1.08184
   H      -14.10815         7.82103         1.60130
   H      -16.57996         7.95356         0.89564
   H      -18.71897         8.57268        -0.13770
   H      -20.60142         9.76887        -1.42075
   H      -21.02465        11.73035        -2.92719
   H      -21.63506        13.68013        -4.50465
   H      -21.41667        16.07935        -6.13610
   H      -20.49938        18.42782        -7.52952
   H      -16.38017        18.32064        -6.24198
   H      -16.59853        15.91727        -4.62055
   H      -17.49468        13.57270        -3.24833
   H      -17.00837        20.31025        -7.82650
   H      -19.93325        20.35984        -8.73581
   H      -18.60969        21.54104        -9.17317
*
