# ORCA input file
# SCF done       -165.738237146395          0.000623937864
! CAM-B3LYP def2-SVP def2/J RIJCOSX Grid4 TightSCF
%maxcore 5000
%tddft
    Mode sTDDFT
    Ethresh 5.0
    maxcore 5000
end

%pal
  nprocs 6
  end
* xyz 0 1
   C      -11.54580         5.83545         0.21694
   C      -12.37861         4.92223         0.81254
   C      -13.47616         5.26222         1.62644
   N      -14.38855         5.47346         2.29099
   C      -12.20323         3.52869         0.72007
   N      -12.09792         2.38624         0.66921
   C      -11.63941         7.28653         0.35180
   C      -10.50728         7.87710        -0.26535
   C      -10.32268         9.23640        -0.32728
   C      -11.31412        10.05267         0.22790
   C      -12.43721         9.45425         0.84422
   C      -12.61410         8.07750         0.92424
   S      -13.55250        10.64469         1.43648
   C      -12.51972        11.91441         0.83680
   C      -11.38869        11.47202         0.23877
  Br      -13.04601        13.70312         1.02736
   C       -9.67561         6.81308        -0.84389
   O       -8.59742         6.93636        -1.41599
   C      -10.39495         5.55860        -0.60396
   C       -9.99946         4.37623        -1.18902
   N       -8.94518         4.36677        -2.00779
   C       -8.46322         3.34046        -2.75903
   S       -8.77489         1.68299        -2.36496
   C       -7.72577         1.20167        -3.65497
   N       -7.57821        -0.17371        -3.88046
   O       -6.81203        -0.52842        -4.75395
   O       -8.23258        -0.91454        -3.16736
   C       -7.17384         2.24804        -4.34103
   C       -7.61156         3.49930        -3.86250
   C       -7.29210         4.76323        -4.46819
   C       -8.13492         5.82701        -4.43266
   C       -7.88051         7.14393        -4.86050
   C       -8.78789         8.14552        -4.62599
   C       -8.65860         9.54078        -4.84352
   C       -9.70729        10.28431        -4.38958
   C      -10.73857         9.52172        -3.79930
   S      -10.34353         7.81858        -3.87333
   C      -11.91754         9.90357        -3.19448
   C      -12.50233        11.17581        -3.01294
   C      -13.70346        11.14162        -2.37178
   C      -14.14587         9.84282        -1.99944
   S      -12.94706         8.66270        -2.51070
   C      -15.26233         9.55016        -1.26531
   C      -15.71481         8.28513        -0.81436
   O      -16.49895         8.28172         0.29770
   C      -16.73450         7.00523         0.62740
   C      -16.13441         6.15309        -0.24616
   C      -15.47978         6.96198        -1.21179
   C      -14.81988         6.53207        -2.41081
   C      -14.07577         5.41487        -2.53637
   C      -13.31731         5.11501        -3.70683
   S      -13.27086         6.27798        -5.01703
   C      -12.02471         5.45982        -5.80588
   C      -11.64770         4.31817        -5.13574
   N      -10.60212         3.51269        -5.61173
   O      -10.10310         3.78744        -6.68524
   O      -10.22293         2.57610        -4.90885
   C      -12.41757         4.07634        -3.94177
   N      -12.24225         2.95141        -3.20078
   C      -13.17478         2.31391        -2.40339
   C      -12.89757         1.19494        -1.74533
   H       -9.45301         9.65940        -0.80564
   H      -13.49085         7.66895         1.39804
   H      -10.64144        12.11732        -0.18551
   H      -10.54164         3.44877        -1.05697
   H       -8.46983         5.28457        -2.09152
   H       -6.52233         2.11302        -5.18516
   H       -6.35400         4.82775        -4.99995
   H       -9.12531         5.68308        -4.01675
   H       -6.93019         7.39156        -5.30980
   H       -7.78051         9.95157        -5.31001
   H       -9.76411        11.35679        -4.45305
   H      -12.02613        12.07536        -3.36051
   H      -14.29378        12.01303        -2.14717
   H      -15.83275        10.38987        -0.88818
   H      -17.33141         6.82488         1.49906
   H      -16.17693         5.08391        -0.23130
   H      -14.93517         7.18285        -3.26766
   H      -13.94338         4.76208        -1.68554
   H      -11.59683         5.82351        -6.71891
   H      -11.43627         2.38934        -3.47169
   H      -14.15314         2.76943        -2.37716
   H      -11.92341         0.73936        -1.78240
   H      -13.64160         0.70576        -1.14796
*
