# ORCA input file
# SCF done       -214.314365119408          0.000715761071
! CAM-B3LYP def2-SVP def2/J RIJCOSX Grid4 TightSCF
%maxcore 5000
%tddft
    Mode sTDDFT
    Ethresh 5.0
    maxcore 5000
end

%pal
  nprocs 6
  end
* xyz 0 1
   C        3.33336        -2.56776         5.27602
   C        3.10803        -1.43202         6.00197
   F        4.13486        -0.76000         6.53734
   C        1.79649        -0.95319         6.19684
   F        1.60569         0.16296         6.91239
   C        0.72804        -1.61801         5.66377
   C        0.92769        -2.79170         4.91094
   C        2.25347        -3.27561         4.71092
   C        2.47985        -4.44840         3.95486
   C        1.41332        -5.11725         3.41456
   C        0.09203        -4.63455         3.63300
   C       -0.15838        -3.50266         4.35514
   C       -0.86469        -5.54414         2.98591
   O       -2.07560        -5.41272         2.94073
   C       -0.06952        -6.64015         2.41540
   C        1.33993        -6.33075         2.60499
   C        2.41226        -6.99018         2.07307
   C        2.35416        -8.14557         1.26405
   N        2.40560        -9.08920         0.61254
   C        3.75176        -6.57135         2.23822
   N        4.85301        -6.26065         2.31869
   C       -0.57945        -7.78569         1.87409
   C       -1.92152        -8.16001         1.65536
   C       -2.25142        -9.43257         1.15868
   C       -1.27617       -10.43692         1.02572
   N       -0.45609       -11.23789         1.01155
   C       -3.63397        -9.60164         0.96186
   C       -4.33509        -8.45390         1.34509
   S       -3.34479        -7.17021         1.91899
   S       -6.05971        -8.60010         1.23093
   C       -5.85032       -10.22564         0.64998
   C       -4.52318       -10.62729         0.52535
   C       -4.43109       -11.94276         0.00809
   C       -3.24007       -12.53673        -0.45263
   N       -2.27350       -12.91609        -0.93762
   C       -5.68061       -12.50746        -0.19073
   S       -6.98857       -11.43359         0.18923
   C       -5.85976       -13.86559        -0.59694
   N       -6.92426       -14.43315        -1.06088
   N       -4.74051       -14.67715        -0.47229
   C       -5.08984       -15.82850        -0.94622
   C       -6.55603       -15.79106        -1.35467
   C       -6.84865       -16.19629        -2.75391
   S       -8.22946       -17.11072        -3.01768
   C       -8.42426       -17.69497        -1.47755
   S       -7.47944       -16.96061        -0.23477
   C       -4.17486       -16.89715        -1.03761
   C       -2.86954       -16.79311        -0.57539
   C       -2.41542       -15.80602         0.31824
   N       -2.00678       -15.14427         1.16044
   C       -2.11236       -17.93493        -0.90539
   C       -2.87402       -18.92558        -1.51921
   S       -4.50112       -18.42800        -1.81418
   S       -2.01550       -20.42262        -1.75039
   C       -0.60273       -19.69655        -1.02929
   C       -0.78261       -18.36477        -0.68087
   C        0.39513       -17.77753        -0.17398
   C        0.59465       -16.38995        -0.06030
   N        0.81434       -15.26439        -0.07408
   C        1.42032       -18.70194        -0.02516
   S        0.97904       -20.27282        -0.65206
   C        2.67399       -18.37594         0.58181
   C        2.76866       -17.42021         1.53727
   C        4.03607       -16.64776         1.76810
   O        5.15808       -17.01283         1.52667
   C        3.56872       -15.33162         2.25342
   C        4.25257       -14.15246         2.36239
   C        3.54984       -12.98385         2.73793
   C        2.14468       -13.04940         2.97480
   C        1.44082       -11.87367         3.30301
   C        2.10818       -10.68955         3.40935
   C        3.49869       -10.62397         3.19725
   C        4.20701       -11.74294         2.86274
   F        4.12048        -9.44206         3.33742
   F        1.44509        -9.55974         3.72836
   C        1.46389       -14.28042         2.87519
   C        2.17410       -15.40030         2.53770
   C        1.71486       -16.75634         2.29782
   C        0.60931       -17.33197         2.85555
   C        0.22636       -18.66672         2.61746
   N       -0.11716       -19.74574         2.42808
   C       -0.24163       -16.65961         3.76039
   N       -0.94251       -16.17946         4.53023
   H        4.34327        -2.92000         5.13521
   H       -0.26943        -1.23925         5.82283
   H        3.49339        -4.79223         3.82843
   H       -1.17045        -3.15771         4.50298
   H        0.12775        -8.55111         1.57495
   H       -6.52117       -15.55167        -3.54810
   H       -9.18502       -18.40006        -1.21825
   H        3.58015       -18.83624         0.21033
   H        5.30898       -14.10422         2.14572
   H        0.37490       -11.91299         3.45620
   H        5.26939       -11.66839         2.69153
   H        0.39501       -14.30790         3.01424
*
