# ORCA input file
# SCF done       -210.500292319462          0.000853563207
! CAM-B3LYP def2-SVP def2/J RIJCOSX Grid4 TightSCF
%maxcore 5000
%tddft
    Mode sTDDFT
    Ethresh 5.0
    maxcore 5000
end

%pal
  nprocs 6
  end
* xyz 0 1
   C       -9.82684        -4.76289        12.10915
   C      -10.68258        -5.48761        12.88963
   F      -11.12804        -4.98502        14.04706
   C      -11.10774        -6.77119        12.48818
   F      -11.94722        -7.45776        13.27304
   C      -10.67059        -7.31154        11.31167
   C       -9.78662        -6.59014        10.48507
   C       -9.35571        -5.29251        10.89014
   C       -8.46485        -4.55318        10.08145
   C       -8.01857        -5.09485         8.90300
   C       -8.46145        -6.38572         8.50061
   C       -9.31797        -7.12548         9.26567
   C       -7.84517        -6.74465         7.20829
   O       -7.86548        -7.83008         6.68069
   C       -7.14133        -5.50199         6.75470
   C       -7.10091        -4.58203         7.89525
   C       -6.29080        -3.49304         8.02927
   C       -5.31690        -3.08398         7.08899
   N       -4.48671        -2.70794         6.39287
   C       -6.27892        -2.65977         9.17068
   N       -6.23175        -1.95031        10.07075
   C       -6.73093        -5.20040         5.51194
   C       -6.85283        -6.06595         4.30093
   C       -5.90988        -7.28398         4.39398
   N       -8.23949        -6.59799         4.22905
   N       -8.80133        -6.88862         3.21074
   C       -8.24523        -6.77079         1.84647
   C       -7.26423        -5.65955         1.84857
   C       -6.58448        -5.31085         3.05427
   N       -5.85377        -4.26131         2.80955
   O       -6.04590        -3.96486         1.51724
   N       -6.90936        -4.80656         0.93144
   C       -9.41560        -6.50982         0.89269
   C       -7.54299        -8.06187         1.50173
   C       -7.99261        -9.29262         1.81080
   C       -9.16567        -9.68514         2.53633
   C       -9.31243       -11.02088         2.66645
   C       -8.27607       -11.79125         2.06288
   S       -7.09329       -10.73252         1.31558
   C       -8.14837       -13.15278         2.03470
   C       -9.01479       -14.13582         2.58932
   C       -8.59663       -15.40769         2.41342
   C       -7.35454       -15.53833         1.70394
   S       -6.77912       -13.92714         1.25601
   C       -6.75177       -16.70970         1.42113
   C       -5.44365       -16.94285         0.72591
   C       -5.60972       -17.97522        -0.39385
   N       -4.62598       -17.58266         1.78557
   N       -3.79686       -17.03085         2.46332
   C       -3.41022       -15.62140         2.39019
   C       -3.76147       -15.08660         1.04793
   C       -4.75811       -15.72332         0.24892
   N       -4.78973       -15.11359        -0.90204
   O       -3.88197       -14.13236        -0.83295
   N       -3.24638       -14.11844         0.34613
   C       -4.17165       -14.84859         3.48744
   C       -1.93719       -15.46481         2.61450
   C       -0.99758       -16.37018         2.91107
   C        0.44099       -15.98601         2.70143
   O        0.88480       -14.86757         2.64377
   C        1.15132       -17.26453         2.52080
   C        2.45084       -17.47337         2.15386
   C        2.91798       -18.79715         2.00604
   C        2.02320       -19.88384         2.23400
   C        2.49504       -21.20313         2.07613
   C        3.79221       -21.43201         1.71324
   C        4.67658       -20.35629         1.49027
   C        4.24998       -19.06624         1.63324
   F        5.94207       -20.61187         1.13498
   F        4.23855       -22.68530         1.56477
   C        0.68643       -19.63787         2.61971
   C        0.25725       -18.34527         2.77152
   C       -1.02442       -17.80009         3.21049
   C       -1.93963       -18.46157         3.97253
   C       -2.99064       -17.83111         4.67801
   N       -3.75970       -17.37299         5.39633
   C       -1.85796       -19.84161         4.26021
   N       -1.83053       -20.96014         4.51329
   H       -9.50950        -3.78360        12.43183
   H      -11.00492        -8.29461        11.01936
   H       -8.15998        -3.57290        10.41056
   H       -9.63446        -8.10508         8.94140
   H       -6.30075        -4.22777         5.31070
   H       -6.22795        -7.91957         5.21536
   H       -4.89437        -6.93420         4.56247
   H       -5.94516        -7.85622         3.46815
   H       -9.93847        -5.60277         1.18661
   H      -10.10754        -7.34594         0.92256
   H       -9.03472        -6.38548        -0.11704
   H       -6.62662        -7.95717         0.93916
   H       -9.83160        -8.94602         2.94402
   H      -10.13129       -11.49183         3.18019
   H       -9.91881       -13.86104         3.10243
   H       -9.11690       -16.28005         2.76604
   H       -7.22552       -17.61974         1.76012
   H       -6.02140       -18.89323         0.01494
   H       -4.64550       -18.19275        -0.84726
   H       -6.27449       -17.57585        -1.15457
   H       -5.24379       -14.96245         3.34864
   H       -3.91109       -13.79542         3.42317
   H       -3.90544       -15.24052         4.46471
   H       -1.58495       -14.46096         2.40085
   H        3.11125       -16.63795         1.97805
   H        1.83356       -22.03796         2.24720
   H        4.93808       -18.25389         1.45925
   H        0.02889       -20.47761         2.77839
*
