# ORCA input file
# SCF done       -170.588086791338          0.000222131027
! CAM-B3LYP def2-SVP def2/J RIJCOSX Grid4 TightSCF
%maxcore 5000
%tddft
    Mode sTDDFT
    Ethresh 5.0
    maxcore 5000
end

%pal
  nprocs 6
  end
* xyz 0 1
   C        5.03815         0.34337        -8.42982
   C        5.52235        -0.82962        -7.99880
   C        6.80200        -1.41186        -8.28471
   C        7.01072        -2.61250        -7.69964
   C        5.91996        -3.07539        -6.91175
   S        4.61080        -1.91888        -6.94039
   C        5.84723        -4.25597        -6.20359
   C        6.82629        -5.26694        -6.08603
   C        6.44361        -6.31115        -5.30065
   C        5.13759        -6.20111        -4.76005
   S        4.41894        -4.69399        -5.28636
   C        4.61587        -7.11597        -3.86698
   C        3.38248        -7.21816        -3.22097
   S        3.36832        -8.19284        -1.77354
   C        1.69697        -7.85996        -1.42459
   C        1.14887        -7.05136        -2.44739
   C        2.08211        -6.70718        -3.46865
   C        1.62909        -6.02240        -4.60529
   C        0.31856        -5.63271        -4.67556
   F       -0.11957        -4.98051        -5.76389
   C       -0.58479        -5.91621        -3.63376
   F       -1.85590        -5.50309        -3.73931
   C       -0.18593        -6.62697        -2.53453
   C        1.06082        -8.36411        -0.29143
   C        1.66649        -9.15434         0.65212
   C        0.98031        -9.64073         1.77502
   N       -0.31354        -9.37402         1.99450
   C       -0.62886        -9.99538         3.13633
   C        0.51914       -10.70831         3.70450
   C        0.14309       -11.38176         4.95378
   O        0.84380       -12.05789         5.68660
   C       -1.27804       -11.03853         5.09355
   C       -1.71593       -10.19440         3.97236
   N       -3.02289        -9.87794         4.08943
   C       -3.41939       -10.46688         5.20087
   C       -2.38405       -11.20538         5.87439
   C        1.56826       -10.49163         2.83668
   C        2.90353       -10.94885         2.88267
   C        3.37992       -11.74318         3.88395
   C        4.69175       -12.23195         3.94919
   S        5.88500       -11.87119         2.74413
   C        7.11396       -12.85123         3.50057
   C        6.61122       -13.41400         4.69925
   C        5.24685       -13.06927         4.94030
   C        4.57855       -13.54354         6.08228
   C        5.26552       -14.32626         6.96768
   F        4.65750       -14.79346         8.06873
   C        6.62168       -14.64248         6.75178
   F        7.27148       -15.39025         7.66010
   C        7.29203       -14.19879         5.64439
   C        8.33721       -12.93888         2.82984
   C        9.40079       -13.77646         3.07054
   C       10.56154       -13.74896         2.30022
   C       11.63597       -14.59643         2.47266
   C       12.83052       -14.61271         1.71840
   C       13.72451       -15.56704         2.10204
   C       13.28354       -16.36133         3.18465
   S       11.69064       -15.84744         3.70108
   C       13.94680       -17.40520         3.79406
   C       15.23282       -17.91497         3.46664
   C       15.63155       -18.95445         4.23449
   C       14.68286       -19.34817         5.23513
   S       13.25750       -18.30287         5.12782
   C       14.79691       -20.33737         6.13274
   H        5.62487         0.97717        -9.07118
   H        4.05824         0.68682        -8.15295
   H        7.50766        -0.90349        -8.91726
   H        7.91122        -3.19087        -7.80534
   H        7.78099        -5.19704        -6.57482
   H        7.05972        -7.16830        -5.09335
   H        5.33837        -7.85742        -3.54109
   H        2.27793        -5.81592        -5.43737
   H       -0.89920        -6.86249        -1.76228
   H        0.02032        -8.12009        -0.13291
   H        2.70904        -9.41611         0.53142
   H       -4.44003       -10.37090         5.52863
   H       -2.49812       -11.75379         6.78876
   H        3.57108       -10.65795         2.08122
   H        2.70917       -12.03026         4.68247
   H        3.54625       -13.29673         6.27105
   H        8.33311       -14.44762         5.53837
   H        8.42923       -12.27533         1.97689
   H        9.35461       -14.51666         3.85395
   H       10.63761       -13.01718         1.50607
   H       12.99251       -13.91787         0.91308
   H       14.68164       -15.71974         1.63688
   H       15.81793       -17.49073         2.67009
   H       16.57063       -19.46906         4.13518
   H       15.67996       -20.95081         6.16398
   H       14.01865       -20.54927         6.84254
*
