# ORCA input file
# SCF done       -196.886533795427          0.000982048037
! CAM-B3LYP def2-SVP def2/J RIJCOSX Grid4 TightSCF
%maxcore 5000
%tddft
    Mode sTDDFT
    Ethresh 5.0
    maxcore 5000
end

%pal
  nprocs 6
  end
* xyz 0 1
   C       -5.67168        -2.69855        -0.39551
   C       -6.09248        -3.43644         0.67966
   C       -5.41003        -4.56142         1.19002
   N       -4.91767        -5.48717         1.65734
   C       -7.23762        -3.19986         1.46414
   N       -8.15168        -3.10507         2.15552
   C       -4.49363        -2.99163        -1.20646
   C       -4.39616        -2.02721        -2.23968
   C       -3.38963        -2.03856        -3.17422
   C       -2.42779        -3.04993        -3.08348
   C       -2.53053        -4.00709        -2.04679
   C       -3.55094        -3.99696        -1.10374
   S       -1.23811        -5.16703        -2.11851
   C       -0.58706        -4.36015        -3.52063
   C       -1.29836        -3.27877        -3.91700
  Br        0.96992        -5.02267        -4.33018
   C       -5.51701        -1.07652        -2.12056
   O       -5.75949        -0.14535        -2.86679
   C       -6.27884        -1.49690        -0.93770
   C       -7.32157        -0.81485        -0.36953
   C       -7.94781         0.38490        -0.74911
   S       -7.87670         1.10452        -2.33196
   C       -9.13580         2.19254        -1.91734
   C       -9.58481         2.07268        -0.63528
   C      -10.64161         2.92798        -0.02006
   C       -8.88679         1.05636         0.06713
   C       -9.07952         0.74163         1.44573
   C       -8.07577         0.27623         2.23857
   C       -8.24049        -0.36849         3.48059
   C       -7.18685        -1.03082         4.04499
   C       -7.27188        -1.93603         5.11239
   S       -8.78103        -2.14185         5.93734
   C       -8.15886        -3.38976         6.98289
   C       -6.76392        -3.53178         6.77691
   C       -6.27853        -2.78811         5.65488
   C       -4.92244        -2.94595         5.26510
   C       -4.31630        -2.39775         4.02309
   O       -4.84378        -2.38063         2.94094
   O       -3.06099        -1.93075         4.15273
   C       -4.10143        -3.74166         6.04985
   C       -4.53595        -4.31459         7.23739
   C       -5.85197        -4.18438         7.63686
   O       -6.19218        -4.63581         8.85783
   C       -9.09526        -4.10004         7.73887
   C       -9.08377        -5.41572         8.17468
   C      -10.13902        -6.02095         8.89361
   C       -9.96707        -7.35515         9.12718
   C       -8.76746        -7.87176         8.60141
   S       -7.86581        -6.62257         7.79065
   C       -8.28400        -9.17129         8.69810
   C       -8.89892       -10.27508         9.31697
   C       -8.14862       -11.41697         9.27000
   C       -6.90872       -11.26338         8.61681
   S       -6.73098        -9.62572         8.03844
   C       -5.94723       -12.24421         8.43919
   C       -4.72135       -12.01837         7.83077
   C       -3.70282       -12.92255         7.60002
   C       -3.65631       -14.35569         7.65103
   C       -4.70294       -15.23422         7.47642
   C       -4.57172       -16.63461         7.52900
   N       -4.53561       -17.78180         7.58514
   C       -6.01203       -14.85951         7.11801
   N       -7.08493       -14.62788         6.77763
   C       -2.24619       -14.74578         7.71269
   C       -1.44888       -13.59268         7.50808
   C       -2.33289       -12.41416         7.37569
   O       -2.00283       -11.26459         7.17319
   C       -0.07771       -13.63893         7.47393
   C        0.53862       -14.88151         7.66256
   C       -0.26533       -16.02361         7.87952
   C       -1.65509       -15.97836         7.90481
   S        0.69974       -17.45206         8.10207
   C        2.15088       -16.50680         7.89867
   C        1.92702       -15.19040         7.67770
  Br        3.82513       -17.34749         8.00309
   H       -3.34426        -1.29031        -3.94998
   H       -3.58511        -4.74711        -0.33188
   H       -1.03965        -2.66647        -4.76149
   H       -7.73557        -1.25425         0.52992
   H       -9.47729         2.90106        -2.64780
   H      -11.00948         3.65324        -0.74048
   H      -10.24472         3.45992         0.84350
   H      -11.47721         2.31489         0.31605
   H      -10.07459         0.86394         1.85242
   H       -7.06119         0.32083         1.86214
   H       -9.23395        -0.45644         3.89917
   H       -6.22435        -0.91393         3.57603
   H       -2.73395        -1.98690         5.06117
   H       -3.08325        -3.93224         5.74004
   H       -3.85478        -4.85632         7.87195
   H       -7.11130        -4.41830         9.06220
   H      -10.04159        -3.58970         7.88080
   H      -10.99328        -5.45400         9.21898
   H      -10.66886        -7.96930         9.66097
   H       -9.86681       -10.20741         9.77985
   H       -8.45069       -12.36248         9.68327
   H       -6.18059       -13.21905         8.84123
   H       -4.47293       -10.99088         7.57972
   H        0.50373       -12.74565         7.30778
   H       -2.22413       -16.87678         8.07694
   H        2.70634       -14.46481         7.53177
*
