# ORCA input file
# SCF done       -169.070046970739          0.000792506947
! CAM-B3LYP def2-SVP def2/J RIJCOSX Grid4 TightSCF
%maxcore 5000
%tddft
    Mode sTDDFT
    Ethresh 5.0
    maxcore 5000
end

%pal
  nprocs 6
  end
* xyz 0 1
   C       -0.68252         4.92983         1.11051
   C       -0.07181         3.95725         1.86599
   C        1.14905         4.13162         2.54497
   N        2.14028         4.21777         3.11862
   C       -0.59252         2.66278         2.05471
   N       -0.97991         1.59650         2.23447
   C       -0.17865         6.28029         0.88712
   C       -1.09045         6.98235         0.05496
   C       -0.88991         8.28618        -0.32827
   C        0.26442         8.93147         0.12926
   C        1.16847         8.22334         0.95556
   C        0.96655         6.90396         1.34382
   S        2.52674         9.20721         1.40691
   C        1.87020        10.53974         0.49309
   C        0.69474        10.26319        -0.12004
  Br        2.79811        12.16907         0.43436
   C       -2.20660         6.08982        -0.27737
   O       -3.18417         6.34475        -0.98024
   C       -1.93122         4.82028         0.39603
   C       -2.79604         3.75434         0.30623
   N       -3.92241         3.86755        -0.40798
   C       -4.87905         2.92575        -0.59149
   S       -4.73919         1.34011         0.10519
   C       -6.26624         0.92380        -0.60422
   N       -6.76207        -0.36513        -0.39123
   O       -7.83743        -0.64673        -0.89361
   O       -6.07843        -1.11587         0.28555
   C       -6.83606         1.94145        -1.32324
   C       -6.05551         3.11194        -1.33115
   C       -6.38466         4.34349        -2.00639
   C       -7.56662         4.57794        -2.60267
   C       -7.97428         5.76058        -3.31909
   C       -7.22301         6.63877        -3.99808
   C       -5.73589         6.56604        -4.13913
   C       -7.85424         7.79262        -4.75479
   N       -9.29096         7.81333        -4.75059
   C      -10.02184         8.51917        -3.85900
   C      -11.29093         8.20060        -3.48976
   C      -12.11246         8.95547        -2.62594
   C      -12.01726        10.28117        -2.28736
   C      -12.84585        10.94964        -1.35270
   C      -12.63388        12.29189        -1.26184
   C      -11.63856        12.77638        -2.13698
   S      -10.93016        11.45107        -3.03454
   C      -11.26234        14.09264        -2.33770
   C      -11.68283        15.22670        -1.61172
   C      -11.17336        16.40052        -2.07872
   C      -10.33749        16.27116        -3.21532
   S      -10.18876        14.57165        -3.63580
   C       -9.76410        17.31507        -3.89694
   C       -9.00816        17.28517        -5.08613
   C       -8.63818        16.21215        -5.89599
   C       -7.92906        16.71555        -7.01845
   C       -7.38114        16.08754        -8.11105
   C       -6.74915        16.88856        -9.08185
   C       -6.12593        16.56811       -10.27323
   C       -5.64826        17.77336       -10.89235
   C       -5.97897        18.83388       -10.07594
   C       -6.67341        18.33324        -8.92685
   C       -7.21442        18.96298        -7.84340
   C       -7.85808        18.16127        -6.87066
   C       -8.50921        18.48994        -5.70461
   C       -4.94646        17.87788       -12.14827
   C       -4.63312        16.86211       -12.94848
   H       -1.60021         8.79607        -0.96013
   H        1.68425         6.40819         1.97559
   H        0.15239        10.96871        -0.72261
   H       -2.60945         2.80893         0.79778
   H       -4.04089         4.79749        -0.84699
   H       -7.77870         1.81792        -1.82288
   H       -5.63633         5.11929        -1.98534
   H       -8.33915         3.82349        -2.53212
   H       -9.04829         5.90028        -3.32510
   H       -5.40464         5.53098        -4.19325
   H       -5.24369         7.03421        -3.28665
   H       -5.41048         7.08787        -5.03667
   H       -7.51095         7.74821        -5.79652
   H       -7.49457         8.73522        -4.32942
   H       -9.73502         6.99977        -5.15479
   H       -9.52124         9.37939        -3.43974
   H      -11.70379         7.26275        -3.84112
   H      -12.94870         8.42681        -2.18480
   H      -13.58101        10.41273        -0.77899
   H      -13.18969        12.94847        -0.61698
   H      -12.33992        15.14796        -0.76424
   H      -11.38462        17.36524        -1.65138
   H       -9.94794        18.29815        -3.47940
   H       -8.85317        15.17513        -5.72464
   H       -7.43364        15.01497        -8.23332
   H       -6.01480        15.57871       -10.67756
   H       -5.76074        19.87006       -10.25984
   H       -7.16657        20.03619        -7.72059
   H       -8.64293        19.47868        -5.30199
   H       -4.66849        18.88599       -12.43123
   H       -4.88841        15.84358       -12.71146
   H       -4.10699        17.01647       -13.87467
*
