# ORCA input file
# SCF done       -194.363635340477          0.000711061798
! CAM-B3LYP def2-SVP def2/J RIJCOSX Grid4 TightSCF
%maxcore 5000
%tddft
    Mode sTDDFT
    Ethresh 5.0
    maxcore 5000
end

%pal
  nprocs 6
  end
* xyz 0 1
   C       -3.79195         2.52854         3.83443
   C       -2.92862         2.96093         4.80191
   F       -2.75502         4.27236         5.01590
   C       -2.21081         2.03713         5.58692
   F       -1.36947         2.48695         6.53015
   C       -2.36342         0.69340         5.39050
   C       -3.24158         0.21695         4.39889
   C       -3.97358         1.14930         3.60812
   C       -4.87021         0.69495         2.61373
   C       -5.01473        -0.65108         2.40772
   C       -4.24827        -1.57254         3.17349
   C       -3.39385        -1.16584         4.15582
   C       -4.52802        -2.94213         2.70500
   O       -4.03234        -3.96398         3.14775
   C       -5.52766        -2.80962         1.64063
   C       -5.85344        -1.40678         1.48153
   C       -6.78709        -0.85397         0.64174
   C       -7.61463        -1.55649        -0.25594
   N       -8.32763        -2.03991        -1.01771
   C       -7.09712         0.52185         0.58284
   N       -7.44234         1.61268         0.49164
   C       -6.09097        -3.83762         0.92530
   C       -5.78211        -5.20196         0.90017
   S       -4.51283        -5.97315         1.80635
   C       -4.78798        -7.47125         0.99415
   C       -5.81477        -7.38789         0.06505
   C       -6.38606        -6.11470         0.02084
   C       -7.47179        -5.73222        -0.93255
   C       -8.00202        -6.92868        -1.73632
   C       -8.95753        -7.67470        -0.95106
   N       -9.69174        -8.27797        -0.31576
   C       -6.84956        -7.86994        -2.14741
   C       -5.85772        -7.15511        -2.92151
   N       -5.05506        -6.62371        -3.53553
   C       -6.20734        -8.47420        -0.88881
   C       -3.85512        -8.52902         1.30173
   C       -4.05078        -9.83379         1.51516
   C       -5.38136       -10.51488         1.52561
   C       -2.87998       -10.75172         1.82811
   N       -1.59377       -10.10035         1.77854
   C       -1.14907        -9.36677         2.83245
   C       -0.54143        -8.15918         2.70665
   C       -0.09840        -7.35110         3.77260
   C       -0.01854        -5.98603         3.65648
   C        0.42534        -5.03360         4.60300
   C        0.25683        -3.73772         4.21026
   C       -0.36459        -3.60275         2.94993
   S       -0.65119        -5.15710         2.23608
   C       -0.80955        -2.44927         2.31702
   C       -0.61069        -1.10200         2.65741
   C       -1.28067        -0.22550         1.84422
   C       -2.05460        -0.84740         0.84650
   S       -1.85476        -2.57999         0.92103
   C       -2.94104        -0.25492        -0.04180
   C       -3.71441        -1.01235        -0.90559
   C       -4.71913        -0.53587        -1.72995
   C       -5.57101        -1.32167        -2.57505
   C       -5.57685        -2.69455        -2.71278
   C       -6.49378        -3.41238        -3.50181
   N       -7.22221        -4.08939        -4.07996
   C       -4.74601        -3.59069        -2.01697
   N       -4.15268        -4.39950        -1.45214
   C       -6.50459        -0.41052        -3.23264
   C       -6.24542         0.90715        -2.78275
   C       -5.11484         0.87885        -1.82965
   O       -4.63078         1.83161        -1.24795
   C       -6.98199         1.98790        -3.19597
   C       -8.01993         1.75829        -4.10703
   C       -8.26503         0.44065        -4.55547
   C       -7.52311        -0.65540        -4.13097
   S       -9.58856         0.38346        -5.68003
   C       -9.78967         2.10898        -5.53532
   C       -8.91509         2.69894        -4.68750
  Br      -11.13391         2.96871        -6.52124
   H       -4.33455         3.24797         3.24133
   H       -1.80798        -0.00180         6.00050
   H       -5.40991         1.42398         2.03122
   H       -2.83594        -1.88824         4.73261
   H       -6.87361        -3.55795         0.23257
   H       -7.07703        -5.00008        -1.64241
   H       -8.30158        -5.25586        -0.40171
   H       -8.51294        -6.55109        -2.63003
   H       -7.24365        -8.67575        -2.77988
   H       -5.32560        -9.06118        -1.15602
   H       -6.93646        -9.14640        -0.42689
   H       -2.86082        -8.12834         1.44160
   H       -5.42805       -11.22627         2.34844
   H       -5.54290       -11.07236         0.60312
   H       -6.18157        -9.79168         1.64616
   H       -2.88114       -11.58042         1.11103
   H       -3.01346       -11.17688         2.82781
   H       -1.38435        -9.69951         0.87129
   H       -1.34055        -9.79662         3.80643
   H       -0.47933        -7.71834         1.71820
   H        0.12112        -7.80379         4.72958
   H        0.85337        -5.33289         5.54368
   H        0.53089        -2.88268         4.80224
   H        0.01970        -0.80322         3.47610
   H       -1.25410         0.84449         1.94989
   H       -3.05490         0.81856        -0.02099
   H       -3.52898        -2.08009        -0.90719
   H       -6.77006         2.97785        -2.82447
   H       -7.75295        -1.64229        -4.49569
   H       -8.89859         3.75301        -4.47832
*
