# ORCA input file
# SCF done       -178.198469464023          0.000468613829
! CAM-B3LYP def2-SVP def2/J RIJCOSX Grid4 TightSCF
%maxcore 5000
%tddft
    Mode sTDDFT
    Ethresh 5.0
    maxcore 5000
end

%pal
  nprocs 6
  end
* xyz 0 1
   C      -11.40360       -11.73633        -4.59537
   C      -12.05923       -12.87375        -4.21273
   F      -12.83432       -13.52873        -5.08627
   C      -11.92878       -13.36955        -2.90075
   F      -12.58200       -14.48576        -2.55257
   C      -11.14338       -12.72055        -1.98805
   C      -10.45584       -11.54802        -2.35231
   C      -10.58717       -11.04484        -3.67894
   C       -9.90563        -9.86806        -4.06783
   C       -9.11548        -9.21521        -3.15892
   C       -8.98763        -9.72879        -1.83490
   C       -9.63437       -10.85962        -1.42992
   C       -8.07980        -8.85684        -1.07803
   O       -7.72431        -8.97824         0.08827
   C       -7.65168        -7.80670        -2.00898
   C       -8.30855        -8.00419        -3.27280
   C       -8.24355        -7.19606        -4.38733
   C       -8.93772        -7.44411        -5.58888
   N       -9.47554        -7.57132        -6.59582
   C       -7.53174        -5.99619        -4.49692
   N       -7.01142        -4.98736        -4.69454
   C       -6.71820        -6.85991        -1.64886
   N       -6.23017        -6.83941        -0.40163
   C       -5.28395        -6.02123         0.14002
   S       -4.46227        -6.57971         1.56775
   C       -3.47210        -5.15908         1.53411
   N       -2.51557        -5.00092         2.54524
   O       -1.81695        -4.00500         2.51095
   O       -2.45892        -5.88131         3.38679
   C       -3.76268        -4.31577         0.49385
   C       -4.81583        -4.78458        -0.31219
   C       -5.37864        -4.05091        -1.42336
   C       -4.67619        -3.26633        -2.25668
   C       -5.30169        -2.65211        -3.39150
   C       -4.68602        -2.07026        -4.43033
   C       -3.21354        -1.83294        -4.53463
   C       -5.47206        -1.65130        -5.65156
   N       -6.75292        -2.29415        -5.73843
   C       -7.91385        -1.66277        -5.86390
   C       -9.12859        -2.30364        -5.81630
   C      -10.38695        -1.71646        -5.96605
   C      -10.74086        -0.42059        -6.28707
   C      -12.06855         0.04827        -6.38105
   C      -12.18867         1.35928        -6.74622
   C      -10.95586         2.00057        -6.97051
   S       -9.64102         0.89445        -6.68278
   C      -10.73302         3.30879        -7.38018
   C      -11.68976         4.30770        -7.63423
   C      -11.15589         5.49321        -8.05766
   C       -9.74868         5.48750        -8.16231
   S       -9.12390         3.92693        -7.68580
   C       -8.88472         6.48568        -8.58485
   C       -9.30669         7.74271        -8.99779
   C       -8.51882         8.77817        -9.47846
   C       -7.07864         8.68622        -9.63017
   O       -6.40401         7.71452        -9.33405
   N       -6.46173         9.81570       -10.16152
   C       -7.08952        10.98418       -10.53204
   O       -6.46411        11.91699       -10.98693
   N       -8.45509        11.02884       -10.35562
   C       -9.22816         9.99595        -9.84981
   O      -10.43296        10.14239        -9.74064
   C       -9.15434        12.24489       -10.73164
   C       -5.02208         9.79151       -10.35631
   H      -11.51502       -11.37054        -5.60417
   H      -11.05357       -13.11355        -0.98745
   H      -10.02448        -9.51607        -5.07968
   H       -9.52131       -11.22662        -0.42120
   H       -6.33147        -6.14321        -2.35999
   H       -6.58443        -7.61732         0.18337
   H       -3.25506        -3.37985         0.34860
   H       -6.44339        -4.16517        -1.58222
   H       -3.60832        -3.17000        -2.13141
   H       -6.37830        -2.75348        -3.41687
   H       -2.75213        -1.73762        -3.55680
   H       -3.01876        -0.92378        -5.10011
   H       -2.73433        -2.66030        -5.05941
   H       -4.87714        -1.90822        -6.53919
   H       -5.61383        -0.56483        -5.65590
   H       -6.76780        -3.29723        -5.54994
   H       -7.85830        -0.59289        -6.00741
   H       -9.11379        -3.36932        -5.62894
   H      -11.23119        -2.37922        -5.81713
   H      -12.90439        -0.59824        -6.17775
   H      -13.12687         1.86881        -6.86846
   H      -12.74322         4.13602        -7.50267
   H      -11.74214         6.36084        -8.29878
   H       -7.82753         6.26761        -8.60699
   H      -10.36457         7.97558        -8.96252
   H       -8.42263        12.94839       -11.11993
   H       -9.65857        12.66008        -9.85910
   H       -9.90339        12.01418       -11.48900
   H       -4.66285         8.81858       -10.02993
   H       -4.55708        10.58543        -9.77250
   H       -4.79067         9.95072       -11.40919
*
