# ORCA input file
# SCF done       -145.239539305469          0.000669176608
! CAM-B3LYP def2-SVP def2/J RIJCOSX Grid4 TightSCF
%maxcore 5000
%tddft
    Mode sTDDFT
    Ethresh 5.0
    maxcore 5000
end

%pal
  nprocs 6
  end
* xyz 0 1
   C       12.47783       -10.30682        -8.56550
   C       12.27741        -9.76685        -7.35642
   C       13.25986        -9.20904        -6.46984
   C       12.75984        -8.73215        -5.31019
   C       11.34813        -8.87510        -5.17678
   S       10.67898        -9.64165        -6.60435
   C       10.56899        -8.49133        -4.11607
   C       10.97403        -7.86596        -2.90782
   C        9.95931        -7.61186        -2.04783
   C        8.67445        -8.03010        -2.50917
   S        8.83113        -8.74877        -4.10793
   C        7.51171        -7.82334        -1.83422
   N        6.24959        -8.23839        -2.17939
   C        5.88149        -9.34736        -2.87114
   S        6.90922       -10.73832        -2.98567
   C        5.63455       -11.59539        -3.79695
   N        5.88334       -12.89797        -4.20723
   O        4.98230       -13.50050        -4.77467
   O        6.99051       -13.35835        -3.96179
   C        4.49299       -10.85019        -3.95470
   C        4.60544        -9.55620        -3.42579
   C        3.57926        -8.54659        -3.45075
   C        2.31394        -8.75936        -3.85434
   C        1.26153        -7.77982        -3.88757
   C        1.35891        -6.47905        -3.48287
   S       -0.09850        -5.57254        -3.62775
   C       -0.91906        -6.96495        -4.26266
   C       -0.07185        -8.08089        -4.35344
   C       -0.57076        -9.28116        -4.86505
   C       -1.88602        -9.41157        -5.28148
   C       -2.74073        -8.28055        -5.17518
   C       -2.24237        -7.06828        -4.66733
   S       -3.45482        -5.82556        -4.62752
   C       -4.61869        -6.92679        -5.27564
   C       -4.12051        -8.15935        -5.51138
   C       -2.39324       -10.64472        -5.84315
   C       -1.81079       -11.85533        -5.76865
   C       -2.36405       -13.01661        -6.40296
   C       -1.82849       -14.24809        -6.42017
   C       -0.56196       -14.63814        -5.72494
   C       -2.51574       -15.35901        -7.17550
   N       -3.01664       -16.39013        -6.29367
   C       -2.38923       -17.57252        -6.01892
   C       -1.33280       -18.11651        -6.65960
   C       -0.79532       -19.40862        -6.37964
   C       -1.21586       -20.34913        -5.47970
   C       -0.36258       -21.47878        -5.59101
   N       -0.18984       -22.71049        -5.06190
   C        0.88947       -23.30460        -5.67971
   C        1.40222       -22.41144        -6.62327
   C        0.61461       -21.26802        -6.56586
   C        0.41440       -19.91272        -7.14749
   C        1.35708       -24.62109        -5.37187
   C        0.83701       -25.46169        -4.47450
   H       13.46711       -10.36398        -8.98425
   H       11.66732       -10.70137        -9.14998
   H       14.29964        -9.19440        -6.74503
   H       13.35172        -8.28271        -4.53252
   H       12.00410        -7.62679        -2.71428
   H       10.07633        -7.14603        -1.08540
   H        7.55067        -7.22876        -0.93118
   H        5.48520        -7.68242        -1.81824
   H        3.62902       -11.24515        -4.45503
   H        3.86987        -7.55549        -3.12984
   H        2.03081        -9.74876        -4.17828
   H        2.22099        -5.97427        -3.09354
   H        0.09560       -10.12260        -4.96208
   H       -5.61894        -6.57710        -5.44076
   H       -4.71868        -8.96007        -5.90634
   H       -3.33073       -10.56767        -6.37693
   H       -0.88684       -11.98375        -5.22603
   H       -3.29063       -12.85208        -6.94135
   H       -0.40098       -14.06005        -4.81880
   H        0.29190       -14.47737        -6.38492
   H       -0.58280       -15.69413        -5.46356
   H       -1.82005       -15.81773        -7.87975
   H       -3.36169       -14.95650        -7.74422
   H       -3.66140       -16.05597        -5.59468
   H       -2.86593       -18.12985        -5.22466
   H       -0.83468       -17.57223        -7.44973
   H       -2.04782       -20.26398        -4.80449
   H       -0.73883       -23.14039        -4.33780
   H        2.24577       -22.60242        -7.25820
   H        0.21241       -19.94135        -8.22031
   H        1.27481       -19.25881        -6.99038
   H        2.21851       -24.93085        -5.94904
   H       -0.02161       -25.21501        -3.87206
   H        1.25896       -26.43733        -4.31126
*
