# ORCA input file
# SCF done       -116.296444428112          0.000768046779
! CAM-B3LYP def2-SVP def2/J RIJCOSX Grid4 TightSCF
%maxcore 5000
%tddft
    Mode sTDDFT
    Ethresh 5.0
    maxcore 5000
end

%pal
  nprocs 6
  end
* xyz 0 1
   C        7.43010         7.29911        -1.02578
   C        7.42489         8.06532        -2.11799
   C        7.50297         5.90135        -1.07553
   C        7.57058         4.68907        -1.11470
   C        7.65258         3.30778        -1.17050
   C        7.73670         2.51736        -0.06710
   C        7.83525         1.11148        -0.17977
   N        7.96795         0.48054        -1.34269
   C        8.09691        -0.81959        -1.05326
   C        8.05227        -1.05130         0.40932
   C        8.16415        -2.49616         0.71513
   O        8.12090        -3.04160         1.79182
   C        8.31124        -3.08577        -0.62565
   C        8.25912        -2.03790        -1.66899
   N        8.37874        -2.58523        -2.90101
   C        8.49848        -3.87589        -2.69288
   C        8.46072        -4.25716        -1.29880
   C        7.87121         0.17243         0.96726
   C        7.72872         0.54620         2.35173
   C        6.73735         1.25555         2.99563
   C        5.44447         1.69930         2.44513
   O        5.28558         2.28611         1.40436
   O        4.42305         1.24196         3.18423
   C        7.17761         1.26312         4.35841
   N        8.31539         0.61667         4.46894
   O        8.64755         0.15920         3.24709
   C        6.55317         1.97562         5.42502
   C        5.71584         3.07106         5.26383
   C        5.27529         3.62198         6.51036
   N        4.44868         4.68672         6.54002
   C        4.09984         5.17386         5.38316
   C        4.55841         4.65416         4.13494
   C        4.14630         5.27946         2.84482
   N        5.35595         3.61955         4.08527
   C        5.79069         2.94045         7.61738
   S        6.81462         1.64311         7.09412
   C        5.52512         3.24766         8.97757
   C        6.04309         2.57330        10.02276
   C        5.80085         2.85493        11.42471
   C        5.04111         3.86130        11.89438
   C        6.43942         1.97119        12.33091
   C        7.00035         1.20032        13.07243
   C        7.64176         0.31627        13.95861
   C        8.39925        -0.69964        13.55464
   H        7.38410         7.73511        -0.03495
   H        7.47407         7.63661        -3.10504
   H        7.37454         9.13835        -2.05247
   H        7.65273         2.83954        -2.14693
   H        7.71961         2.94935         0.92200
   H        8.61203        -4.54998        -3.52426
   H        8.53871        -5.25752        -0.92162
   H        3.58267         1.52383         2.79106
   H        3.43239         6.02526         5.40163
   H        4.51420         4.68075         2.01542
   H        4.55834         6.28511         2.77022
   H        3.06144         5.35787         2.79187
   H        4.85824         4.08716         9.11549
   H        6.70324         1.73755         9.82337
   H        4.54208         4.55386        11.24111
   H        4.90903         4.00621        12.95237
   H        7.48173         0.51206        15.01231
   H        8.56263        -0.90030        12.50883
   H        8.87795        -1.35945        14.25754
*
