# ORCA input file
# SCF done       -145.084851503376          0.000379784768
! CAM-B3LYP def2-SVP def2/J RIJCOSX Grid4 TightSCF
%maxcore 5000
%tddft
    Mode sTDDFT
    Ethresh 5.0
    maxcore 5000
end

%pal
  nprocs 6
  end
* xyz 0 1
   C       -0.70920        -1.03533        -2.56077
   S       -1.97350        -0.52647        -1.54081
   C       -1.54607        -1.65896        -0.31971
   C       -0.43882        -2.41372        -0.69573
   C        0.04411        -2.04881        -2.00061
   C        1.16349        -2.71522        -2.54435
   C        1.77554        -3.70574        -1.81967
   C        2.89707        -4.38457        -2.34922
   N        3.80723        -4.92379        -2.78999
   C        1.29408        -4.06470        -0.51620
   C        1.93588        -5.09159         0.21227
   N        2.42575        -5.92393         0.82997
   C        0.21141        -3.42561         0.03347
   C       -2.32539        -1.69877         0.89130
   N       -3.29437        -0.78279         0.98394
   C       -4.01154        -0.79036         2.09426
   C       -3.78322        -1.68975         3.11879
   C       -2.75375        -2.62727         2.93027
   N       -2.03306        -2.61514         1.80349
   C       -2.44106        -3.61264         3.93254
   C       -1.55114        -4.60560         3.70088
   C       -1.11940        -5.64367         4.55848
   S       -0.27930        -6.96646         3.81885
   C       -0.08304        -7.82076         5.31080
   C       -0.67857        -7.10463         6.36524
   C       -1.23632        -5.85678         5.94480
   C       -1.76988        -4.99163         6.91328
   C       -1.84168        -5.36271         8.23623
   C       -2.36682        -4.43258         9.23388
   C       -3.32050        -3.53819         9.01035
   C       -1.39680        -6.65758         8.63252
   C       -1.56111        -7.10776        10.05171
   C       -0.82514        -7.49244         7.71066
   C        0.62991        -9.04401         5.26470
   C        1.21639        -9.69228         6.30209
   C        1.91806       -10.92174         6.17945
   S        2.72453       -11.58113         7.58360
   C        3.28717       -12.96344         6.69403
   C        2.84851       -12.90180         5.36458
   C        2.08717       -11.75122         5.09423
   C        3.12523       -13.90908         4.35387
   O        3.74684       -14.93464         4.50650
   C        4.08040       -13.97967         7.26915
   C        4.51674       -13.96790         8.55455
   C        5.32031       -14.94386         9.19176
   S        6.09969       -14.48257        10.67649
   C        6.89061       -15.97833        10.83626
   C        6.57080       -16.84456         9.81108
   C        5.65594       -16.26627         8.85979
   C        5.18132       -17.06722         7.80468
   C        5.62720       -18.36130         7.67345
   C        5.13767       -19.17905         6.62943
   N        4.73326       -19.84620         5.79003
   C        6.57476       -18.91462         8.59471
   C        7.01839       -20.24631         8.42090
   N        7.39189       -21.32297         8.30201
   C        7.03136       -18.16875         9.64902
   H       -0.56950        -0.57735        -3.51991
   H        1.53064        -2.44432        -3.52295
   H       -0.15242        -3.67730         1.01580
   H       -4.79201        -0.04228         2.15430
   H       -4.37227        -1.68120         4.02133
   H       -2.98402        -3.53241         4.86047
   H       -1.13571        -4.64753         2.70158
   H       -2.08826        -4.00384         6.62700
   H       -1.92944        -4.50325        10.22060
   H       -3.81581        -3.45267         8.05751
   H       -3.65818        -2.86839         9.78234
   H       -2.58030        -6.93683        10.39410
   H       -0.88787        -6.55655        10.70896
   H       -1.33387        -8.16681        10.14545
   H       -0.50662        -8.47535         8.01753
   H        0.75509        -9.45181         4.27002
   H        1.20575        -9.26090         7.29104
   H        1.67163       -11.54448         4.12458
   H        2.69243       -13.65413         3.36775
   H        4.35682       -14.76913         6.58806
   H        4.27467       -13.10398         9.16468
   H        7.54778       -16.15904        11.66325
   H        4.45305       -16.69389         7.10372
   H        7.72958       -18.58566        10.35916
*
