# ORCA input file
# SCF done       -123.859990866289          0.000368790092
! CAM-B3LYP def2-SVP def2/J RIJCOSX Grid4 TightSCF
%maxcore 5000
%tddft
    Mode sTDDFT
    Ethresh 5.0
    maxcore 5000
end

%pal
  nprocs 6
  end
* xyz 0 1
   C       -1.03275         4.41494         2.05803
   S        0.46294         4.62165         1.24071
   C        0.68403         2.90948         1.07980
   C       -0.38065         2.22746         1.64721
   C       -1.36422         3.10069         2.20979
   O       -2.49279         2.69317         2.82155
   C       -0.54336         0.83665         1.70229
   N       -0.78266        -0.28219         1.80306
   C        1.84091         2.38349         0.43606
   S        2.08710         0.68252         0.20441
   C        3.60158         0.96845        -0.58129
   C        4.32960        -0.14528        -1.15683
   O        5.22987        -0.05225        -1.95316
   C        3.89832         2.32575        -0.64441
   C        2.89262         3.11774        -0.06964
   C        5.17488         2.81972        -1.11622
   N        5.35176         3.88363        -1.96259
   C        4.32969         4.55290        -2.72910
   C        3.67803         3.61560        -3.74111
   C        6.72307         4.14044        -2.18201
   O        7.11939         5.03128        -2.91156
   C        7.40668         3.16751        -1.36820
   C        6.41312         2.36772        -0.72976
   C        7.07853         1.38352         0.09222
   O        6.65922         0.51416         0.82572
   N        8.44723         1.63803        -0.12033
   C        9.45933         0.86090         0.55163
   C       10.02825         1.59343         1.76502
   C        8.65316         2.69521        -0.97789
   C        9.94643         3.16340        -1.35174
   C       10.10939         4.22500        -2.16895
   C       11.36645         4.78830        -2.59830
   C       11.35383         5.84974        -3.50551
   C       12.54633         6.42275        -3.94024
   C       13.73497         5.88515        -3.42370
   N       13.75954         4.88728        -2.56237
   C       12.62509         4.35309        -2.15895
   C       12.54039         7.52132        -4.88109
   S       11.02499         8.15964        -5.47502
   C       11.81143         9.31560        -6.44387
   C       13.17489         9.23605        -6.33449
   C       13.59845         8.20562        -5.43624
   O       14.89731         7.94322        -5.17094
   C       14.09560        10.05288        -7.01027
   N       14.90607        10.68116        -7.52563
   H       -1.59380         5.26486         2.38714
   H       -2.54067         1.72749         2.83165
   H        3.94792        -1.12832        -0.82351
   H        2.94109         4.18884         0.01663
   H        4.83894         5.37071        -3.24724
   H        3.57395         4.97553        -2.06097
   H        4.43195         3.19841        -4.40399
   H        2.95163         4.16223        -4.33619
   H        3.17135         2.79532        -3.23714
   H       10.25206         0.59968        -0.15503
   H        8.96414        -0.05802         0.87803
   H       10.47538         2.54200         1.47546
   H       10.78676         0.98016         2.24368
   H        9.23616         1.79059         2.48325
   H       10.79958         2.63301        -0.95606
   H        9.22734         4.72043        -2.55396
   H       10.40543         6.22131        -3.87002
   H       14.69701         6.27651        -3.71536
   H       12.72744         3.54469        -1.44849
   H       11.24747         9.99861        -7.04767
   H       15.46449         8.54403        -5.67392
*
