# ORCA input file
# SCF done       -162.044556594890          0.000266938041
! CAM-B3LYP def2-SVP def2/J RIJCOSX Grid4 TightSCF
%maxcore 5000
%tddft
    Mode sTDDFT
    Ethresh 5.0
    maxcore 5000
end

%pal
  nprocs 6
  end
* xyz 0 1
   C        2.49233         0.18311         0.06602
   N        1.84732        -0.91796        -0.16939
   C        1.91910        -1.09994        -1.51988
   C        2.67037        -0.00025        -2.15466
   C        2.73715        -0.21047        -3.61243
   O        3.25679         0.48378        -4.45751
   C        2.00671        -1.48077        -3.79277
   C        1.52375        -1.98286        -2.48216
   N        0.85366        -3.15511        -2.64080
   C        0.89324        -3.40211        -3.92149
   C        1.60095        -2.39608        -4.70299
   C        3.05212         0.83057        -1.13098
   C        3.81384         2.05371        -1.15064
   C        4.16592         2.70699         0.03254
   C        4.90111         3.87831         0.00443
   N        5.32884         4.37959         1.28730
   O        4.53409         4.30985         2.20062
   O        6.46294         4.79799         1.38916
   C        5.28685         4.48073        -1.20806
   C        4.96442         3.78460        -2.38368
   C        4.25055         2.61020        -2.36422
   C        5.93672         5.75972        -1.33043
   C        5.81290         6.80281        -0.47968
   C        6.50789         8.02595        -0.68188
   N        6.54198         9.03930         0.24237
   C        5.99681         8.99811         1.57911
   C        6.82679         8.10927         2.50197
   C        7.31205        10.12881        -0.20049
   O        7.49199        11.13707         0.45331
   C        7.75873         9.73868        -1.52051
   C        7.25397         8.44201        -1.78364
   C        7.68532         8.05655        -3.10908
   O        7.50841         7.04645        -3.76173
   N        8.43453         9.15362        -3.56332
   C        9.00997         9.16642        -4.88673
   C        8.16570         9.97960        -5.86494
   C        8.48967        10.16457        -2.63049
   C        9.19780        11.37375        -2.82529
   C        9.25919        12.34763        -1.87764
   C        9.97150        13.56316        -2.03097
   S        9.99581        14.72227        -0.73210
   C       10.97666        15.82651        -1.64528
   C       11.29029        15.28320        -2.90059
   C       10.71021        14.02625        -3.10519
   C       12.23650        15.84097        -3.86616
   O       12.29406        15.52046        -5.02595
   C       11.29326        17.08610        -1.08925
   C       11.64756        18.20431        -1.78072
   C       11.97943        19.41056        -1.11596
   N       12.02062        19.51486         0.21503
   C       12.38192        20.77831         0.46677
   C       12.58258        21.53998        -0.79476
   C       12.98593        22.93361        -0.49953
   O       13.22576        23.82714        -1.27691
   C       13.01974        22.94697         0.97279
   C       12.64585        21.62187         1.51804
   N       12.68001        21.63616         2.87160
   C       13.04315        22.85532         3.19235
   C       13.27168        23.72445         2.05784
   C       12.32636        20.66538        -1.79020
   H        2.57030         0.54780         1.07515
   H        0.42739        -4.28653        -4.32054
   H        1.74204        -2.42014        -5.76539
   H        3.90061         2.29974         0.99604
   H        5.27290         4.20910        -3.32677
   H        4.02010         2.10852        -3.29180
   H        6.52820         5.89171        -2.22746
   H        5.17106         6.74736         0.38760
   H        4.95761         8.65880         1.54105
   H        6.01403        10.02939         1.94245
   H        6.87922         7.08832         2.12924
   H        6.38192         8.09611         3.49295
   H        7.83928         8.49758         2.58066
   H        9.04291         8.12277        -5.21167
   H       10.03237         9.55107        -4.83851
   H        7.16864         9.55242        -5.93783
   H        8.62401         9.96087        -6.84967
   H        8.07544        11.01372        -5.53961
   H        9.71340        11.50525        -3.76473
   H        8.74041        12.20528        -0.93856
   H       10.86131        13.47878        -4.01789
   H       12.95261        16.56434        -3.43360
   H       11.20423        17.18721        -0.01496
   H       11.65567        18.22027        -2.86110
   H       13.14772        23.13495         4.22653
   H       13.57374        24.75168         2.10903
   H       12.35547        20.80366        -2.85318
*
