# ORCA input file
# SCF done       -158.893561024159          0.000688706661
! CAM-B3LYP def2-SVP def2/J RIJCOSX Grid4 TightSCF
%maxcore 5000
%tddft
    Mode sTDDFT
    Ethresh 5.0
    maxcore 5000
end

%pal
  nprocs 6
  end
* xyz 0 1
   C        3.55400        -0.39591         5.11201
   C        3.27906         0.44453         6.14714
   S        3.97983        -0.12526         7.61643
   C        4.66330        -1.52603         6.82537
  Cl        5.56880        -2.67162         7.68094
   C        4.34520        -1.52537         5.49924
   C        4.60050        -2.38549         4.34121
   O        5.28960        -3.37603         4.29250
   C        3.89349        -1.70569         3.20166
   C        3.26419        -0.48260         3.69666
   C        2.49902         0.41210         3.00105
   C        1.93942         1.54466         3.63228
   N        1.48166         2.47182         4.12833
   C        2.17353         0.33236         1.63165
   N        1.87131         0.32342         0.52447
   C        3.96441        -2.09203         1.90743
   C        4.50392        -3.34476         1.42269
   C        4.26446        -4.55026         2.07439
   C        4.79908        -5.73442         1.59124
   N        4.41846        -6.94418         2.27108
   O        3.83553        -6.84003         3.32741
   O        4.67562        -8.01160         1.74404
   C        5.62305        -5.75578         0.44835
   C        5.80595        -4.54143        -0.22517
   C        5.24564        -3.37156         0.23351
   C        6.28316        -6.96032        -0.00778
   C        6.46650        -7.26831        -1.30270
   C        7.06919        -8.48821        -1.74681
   N        7.09796        -9.63368        -0.99452
   C        7.66288       -10.60082        -1.75316
   N        8.01527       -10.15966        -2.92538
   C        7.66448        -8.84265        -2.96022
   C        7.93313        -8.02176        -4.11876
   C        8.01193        -6.63673        -4.03506
   C        8.21839        -5.86540        -5.16976
   N        8.27761        -4.44509        -4.97170
   O        7.79172        -4.00819        -3.94534
   O        8.79929        -3.75422        -5.82361
   C        8.39040        -6.45363        -6.43638
   C        8.35366        -7.85447        -6.49125
   C        8.13032        -8.61937        -5.37093
   C        8.52954        -5.68711        -7.65371
   C        9.27372        -6.08106        -8.70717
   C        9.45156        -5.32800        -9.90527
   C        8.64505        -4.41647       -10.50725
   C        9.25676        -3.51904       -11.54372
   O       10.33672        -3.66115       -12.06273
   C        8.27315        -2.44769       -11.72894
   C        8.18488        -1.27442       -12.41649
   S        6.64139        -0.50793       -12.12248
   C        6.13015        -1.78862       -11.08506
   C        7.09381        -2.74090       -10.96832
   C        7.25994        -4.02354       -10.30941
   C        6.22255        -4.76486        -9.80882
   C        4.90817        -4.25435        -9.76159
   N        3.83636        -3.84991        -9.70226
   C        6.32073        -6.09413        -9.35981
   N        6.33890        -7.18426        -9.00028
  Cl        9.33956        -0.56921       -13.43491
   H        2.71804         1.35791         6.15163
   H        3.61796        -1.41246         1.13838
   H        3.62626        -4.59635         2.94291
   H        6.42266        -4.51894        -1.11041
   H        5.41200        -2.45262        -0.30831
   H        6.63355        -7.63705         0.75831
   H        6.10003        -6.60891        -2.07661
   H        6.68571        -9.73444        -0.08017
   H        7.80293       -11.60830        -1.41609
   H        7.95387        -6.13419        -3.08277
   H        8.44921        -8.33119        -7.45345
   H        8.09202        -9.69522        -5.43255
   H        8.04834        -4.71893        -7.68585
   H        9.88197        -6.97186        -8.62286
   H       10.41218        -5.45528       -10.39753
   H        5.16143        -1.74048       -10.62874
*
