# ORCA input file
# SCF done       -155.195338140741          0.000449282683
! CAM-B3LYP def2-SVP def2/J RIJCOSX Grid4 TightSCF
%maxcore 5000
%tddft
    Mode sTDDFT
    Ethresh 5.0
    maxcore 5000
end

%pal
  nprocs 6
  end
* xyz 0 1
   C        7.87978        -6.97791         3.32803
   C        8.71503        -7.91909         3.84643
   S        8.56495        -9.41901         3.00468
   C        7.34955        -8.77693         1.92848
  Cl        6.66407        -9.71283         0.69175
   C        7.09642        -7.46900         2.23452
   C        6.22372        -6.41748         1.73302
   O        5.39152        -6.52113         0.85184
   C        6.53144        -5.21560         2.56737
   C        7.55072        -5.58570         3.55350
   C        8.13878        -4.79686         4.50230
   C        9.12159        -5.31523         5.37510
   N        9.91874        -5.71973         6.09309
   C        7.87547        -3.43177         4.73844
   N        7.71522        -2.32180         4.98282
   C        5.91203        -4.01040         2.51032
   C        4.91159        -3.57508         1.56535
   C        4.91129        -3.92791         0.21849
   C        3.85242        -3.53512        -0.60244
   C        2.89527        -2.67710        -0.04392
   N        2.91734        -2.29669         1.21624
   C        3.86822        -2.74186         2.00773
   C        3.76189        -4.01925        -1.95418
   S        2.93738        -3.16980        -3.22617
   C        3.26431        -4.39351        -4.42669
   C        3.96744        -5.44412        -3.84309
   C        4.23519        -5.21590        -2.45261
   N        4.87211        -6.30160        -1.94509
   C        5.00091        -7.22472        -2.95942
   C        5.60545        -8.46871        -2.72910
   N        6.09899        -9.48500        -2.52768
   C        4.47560        -6.73499        -4.13696
   C        2.81667        -4.21535        -5.77580
   C        3.28171        -5.03964        -6.80558
   C        2.84521        -4.86267        -8.10317
   N        3.27731        -5.85214        -9.06137
   O        4.41885        -6.24906        -8.97287
   O        2.46048        -6.25663        -9.85981
   C        1.95023        -3.83884        -8.45571
   C        1.46669        -3.04292        -7.40825
   C        1.88659        -3.21870        -6.11236
   C        1.58868        -3.50887        -9.81329
   C        2.42338        -3.58047       -10.87121
   C        2.04622        -3.17833       -12.17957
   C        2.87744        -2.96424       -13.23306
   C        2.31665        -2.91897       -14.62042
   O        1.15304        -2.80900       -14.92104
   C        3.48824        -3.08271       -15.48994
   C        3.73554        -3.22450       -16.82232
   S        5.45206        -3.38463       -17.11361
   C        5.81530        -3.24732       -15.43180
   C        4.68261        -3.09571       -14.69553
   C        4.32605        -2.89440       -13.30297
   C        5.20757        -2.51641       -12.32457
   C        6.59496        -2.45252       -12.57658
   N        7.72571        -2.40478       -12.76342
   C        4.85649        -2.05571       -11.03979
   N        4.62761        -1.62742        -9.99945
  Cl        2.61940        -3.25409       -18.09595
   H        9.40661        -7.84078         4.66171
   H        6.13569        -3.29013         3.28774
   H        5.75266        -4.45093        -0.20547
   H        2.08811        -2.28462        -0.64838
   H        3.80462        -2.43786         3.04344
   H        5.06855        -6.48011        -0.96840
   H        4.45812        -7.26677        -5.06644
   H        3.98964        -5.82631        -6.60438
   H        0.77043        -2.25177        -7.64073
   H        1.49806        -2.57992        -5.33304
   H        0.61315        -3.05969        -9.94705
   H        3.43196        -3.94653       -10.74160
   H        0.98579        -3.09614       -12.39140
   H        6.83583        -3.29846       -15.10778
*
