# ORCA input file
# SCF done       -206.356620649804          0.000480555185
! CAM-B3LYP def2-SVP def2/J RIJCOSX Grid4 TightSCF
%maxcore 5000
%tddft
    Mode sTDDFT
    Ethresh 5.0
    maxcore 5000
end

%pal
  nprocs 6
  end
* xyz 0 1
   C       -5.14222        -0.92356        -0.67425
   C       -5.28164        -2.24122        -0.99566
   C       -6.61835        -2.54771        -1.45489
   C       -7.45931        -1.41017        -1.33999
   S       -6.58596        -0.00501        -0.77181
   C       -8.79994        -1.38390        -1.67911
   C       -9.63315        -0.15268        -1.48779
   C      -10.32358        -0.17492        -0.12277
   C       -9.33188        -2.57382        -2.17921
   C       -8.48039        -3.68393        -2.38214
   C       -7.13053        -3.70637        -2.05784
   C       -6.30177        -4.88170        -2.49018
   C       -5.39892        -4.49903        -3.66260
   S       -9.36000        -5.01345        -3.10151
   C      -10.82158        -4.09013        -3.09196
   C      -10.67078        -2.84763        -2.59456
   C       -4.17569        -3.14048        -0.74313
   C       -4.31058        -4.31502        -0.09589
   C       -3.27870        -5.22586         0.26738
   S       -3.67850        -6.44758         1.43152
   C       -2.08059        -7.10512         1.45808
   C       -1.24449        -6.36950         0.61842
   C       -1.93723        -5.34409        -0.11562
   C       -1.25381        -4.67302        -1.14648
   C        0.07125        -4.94397        -1.39063
   C        0.73173        -4.36443        -2.49458
   N        1.25387        -3.91178        -3.40989
   C        0.79541        -5.83600        -0.53631
   C        2.17236        -6.05495        -0.74469
   N        3.28624        -6.28126        -0.89838
   C        0.14454        -6.52436         0.45525
   C       -1.81114        -8.27588         2.23814
   C       -0.99801        -9.35327         1.94830
   C       -0.96521       -10.32095         3.01235
   C       -1.80730        -9.93745         4.08980
   S       -2.59382        -8.41060         3.79304
   C       -2.00401       -10.67694         5.24062
   C       -2.88787       -10.18339         6.34625
   C       -2.07301        -9.42008         7.39203
   C       -1.30269       -11.88196         5.32795
   C       -0.47499       -12.28297         4.25349
   C       -0.28525       -11.54607         3.09395
   C        0.55738       -12.12544         2.00058
   C       -0.31207       -12.82654         0.95607
   S        0.27499       -13.82558         4.58526
   C       -0.50796       -13.90145         6.12353
   C       -1.29481       -12.83824         6.38636
   C       -0.29512        -9.41131         0.67511
   C       -0.91463        -9.15856        -0.49179
   C       -0.32879        -8.78690        -1.74749
   C        0.98888        -8.72190        -2.18088
   C        1.15591        -7.87820        -3.34526
   C       -0.09713        -7.40992        -3.82458
   S       -1.41382        -7.91568        -2.79721
   C       -0.27955        -6.64672        -4.96099
   C       -1.63580        -6.21226        -5.42902
   C       -1.93522        -4.77709        -4.99507
   C        0.88029        -6.27596        -5.64531
   C        2.13523        -6.70935        -5.16428
   C        2.31701        -7.51016        -4.04377
   C        3.71713        -7.92024        -3.69193
   C        4.00953        -9.35644        -4.12992
   S        3.42318        -6.10913        -6.17576
   C        2.28816        -5.30975        -7.20039
   C        1.00593        -5.47619        -6.81877
   C        2.03364        -9.49973        -1.58231
   C        1.86279       -10.78713        -1.19176
   C        2.88172       -11.59905        -0.63911
   N        2.63795       -12.88249        -0.35279
   C        3.76597       -13.35864         0.18264
   C        4.81583       -12.30897         0.23105
   C        6.05408       -12.84653         0.83843
   O        7.10548       -12.27885         1.02774
   C        5.67670       -14.23370         1.15096
   C        4.28333       -14.50373         0.73999
   N        3.93450       -15.77674         1.03830
   C        5.00357       -16.30313         1.59245
   C        6.12364       -15.39871         1.69383
   C        4.25019       -11.20049        -0.29231
   H       -4.25175        -0.44850        -0.30823
   H      -10.38316        -0.08434        -2.27713
   H       -8.99147         0.72909        -1.55065
   H      -10.96685        -1.04760        -0.03493
   H      -10.92795         0.71902         0.00889
   H       -9.58300        -0.21269         0.67276
   H       -6.97311        -5.68359        -2.80406
   H       -5.68360        -5.26351        -1.68072
   H       -4.69495        -3.72509        -3.36483
   H       -5.99289        -4.12323        -4.49270
   H       -4.83987        -5.36842        -3.99881
   H      -11.71550        -4.54716        -3.46975
   H      -11.47637        -2.14057        -2.51540
   H       -3.19585        -2.74560        -0.96927
   H       -5.29466        -4.58608         0.26789
   H       -1.77500        -3.97579        -1.78214
   H        0.69356        -7.18917         1.10263
   H       -3.39455       -11.02576         6.81948
   H       -3.64889        -9.51929         5.92885
   H       -1.30411       -10.06101         7.81752
   H       -2.71957        -9.07088         8.19322
   H       -1.58913        -8.55871         6.93722
   H        1.24230       -12.86009         2.42950
   H        1.16172       -11.35906         1.52144
   H       -0.89912       -13.61225         1.42553
   H        0.33157       -13.27092         0.20186
   H       -0.99161       -12.11942         0.48414
   H       -0.32714       -14.75540         6.74725
   H       -1.85192       -12.72511         7.29850
   H        0.77374        -9.56208         0.70575
   H       -1.99429        -9.05791        -0.47663
   H       -2.39527        -6.88246        -5.01838
   H       -1.67793        -6.28000        -6.51764
   H       -2.04275        -4.73257        -3.91466
   H       -2.85830        -4.42702        -5.45042
   H       -1.12369        -4.11398        -5.28439
   H        3.89771        -7.78166        -2.62655
   H        4.40792        -7.25286        -4.21154
   H        3.30489       -10.05842        -3.68962
   H        5.01545        -9.64150        -3.83249
   H        3.93543        -9.43422        -5.21227
   H        2.65899        -4.75343        -8.03928
   H        0.17179        -5.04391        -7.34047
   H        3.00650        -9.04539        -1.49540
   H        0.90651       -11.27264        -1.32886
   H        4.99148       -17.32677         1.92538
   H        7.08149       -15.63373         2.11414
   H        4.67327       -10.22522        -0.43018
*
