# ORCA input file
# SCF done       -193.054606291735          0.000798729164
! CAM-B3LYP def2-SVP def2/J RIJCOSX Grid4 TightSCF
%maxcore 5000
%tddft
    Mode sTDDFT
    Ethresh 5.0
    maxcore 5000
end

%pal
  nprocs 6
  end
* xyz 0 1
   C       10.58119       -11.89051        -3.98142
   C       10.94930       -13.12462        -3.56535
   C       11.05749       -13.23338        -2.15275
   C       10.77384       -12.03496        -1.52402
   S       10.37461       -10.79481        -2.67189
   C       10.83148       -11.76801        -0.13901
   C       10.87070       -12.69479         0.89069
   C       10.80692       -14.16316         0.84305
   O       10.46932       -14.76303         1.84513
   N       11.19651       -14.88175        -0.28242
   C       11.50870       -14.50912        -1.58681
   O       12.08650       -15.30148        -2.30573
   C       11.38638       -16.31639        -0.02406
   C       12.78523       -16.59967         0.50667
   C       10.89832       -12.07312         2.15679
   C       10.89533       -10.70153         2.11622
   S       10.82799       -10.14188         0.46329
   C       10.94440        -9.81445         3.22733
   C       10.98624        -8.47057         3.10801
   C       11.06563        -7.50863         4.15834
   S       11.57927        -5.90461         3.68346
   C       11.42615        -5.29656         5.30549
   N       11.78246        -4.00101         5.58438
   C       12.81911        -3.73052         6.56862
   C       10.95939        -6.27680         6.17048
   C       10.77845        -7.53397         5.50604
   C       10.21090        -8.70396         6.21645
   O       10.64574        -9.82846         6.19081
   O        9.12873        -8.35520         6.92338
   C        8.52056        -9.38174         7.69259
   C       10.64903        -6.09285         7.55904
   C       10.32273        -4.92127         8.15101
   C        9.97601        -4.81492         9.52037
   S        9.79797        -6.19965        10.54272
   C        9.42955        -5.24546        11.93978
   C        9.35128        -3.88524        11.60255
   C        9.67513        -3.63927        10.22738
   C        9.67313        -2.32810         9.72710
   C        9.31645        -1.28352        10.54786
   C        9.33173         0.03910        10.05411
   N        9.35770         1.10317         9.62795
   C        8.90510        -1.53734        11.89231
   C        8.47878        -0.46336        12.70485
   N        8.14278         0.39876        13.38167
   C        8.91428        -2.81478        12.40126
   C        9.26236        -5.90540        13.19313
   C        9.59791        -5.32363        14.44053
   C        9.37712        -6.03257        15.66453
   N        9.77114        -5.49060        16.83988
   C       10.32025        -4.31255        16.82533
   C       10.54807        -3.61628        15.61803
   N       10.20859        -4.11958        14.46576
   C        8.80500        -7.31792        15.67122
   C        8.53357        -7.93085        14.43571
   C        8.80838        -7.24794        13.21115
   N        8.61639        -7.87661        12.03569
   C        8.16188        -9.09784        12.04245
   C        7.80520        -9.73524        13.25033
   N        7.97902        -9.16286        14.40528
   C        8.53016        -8.00249        16.92149
   C        7.86241        -7.33954        17.96672
   C        7.62126        -8.00853        19.21173
   N        7.03113        -7.34464        20.23921
   C        6.67655        -6.11251        20.03853
   C        6.83383        -5.48188        18.77719
   N        7.40480        -6.07953        17.77570
   C        7.98610        -9.34010        19.38071
   C        8.61818       -10.01417        18.34139
   C        8.92369        -9.33872        17.11352
   N        9.63292        -9.97411        16.15130
   C        9.93961       -11.22116        16.34334
   C        9.55788       -11.91560        17.52009
   N        8.94381       -11.32334        18.49777
   H       10.41948       -11.54686        -4.98345
   H       11.14433       -13.95660        -4.21674
   H       11.22805       -16.84456        -0.96474
   H       10.63372       -16.61834         0.70515
   H       13.53135       -16.28887        -0.22058
   H       12.89568       -17.66497         0.68861
   H       12.94918       -16.06645         1.44033
   H       10.92158       -12.63760         3.07121
   H       10.96873       -10.28537         4.19816
   H       11.01841        -8.04523         2.11006
   H       11.91830        -3.45240         4.74327
   H       12.76103        -2.68095         6.85269
   H       13.81925        -3.93513         6.17259
   H       12.66008        -4.34801         7.44863
   H        8.06109       -10.12524         7.03776
   H        7.76690        -8.89122         8.30356
   H        9.26620        -9.87740         8.31845
   H       10.62753        -6.98711         8.16603
   H       10.28711        -4.01546         7.56419
   H        9.94344        -2.13314         8.70035
   H        8.57657        -2.98627        13.40915
   H       10.62651        -3.90313        17.77861
   H       11.03778        -2.65201        15.60047
   H        8.04144        -9.58269        11.08326
   H        7.35424       -10.71842        13.25427
   H        6.22544        -5.59049        20.87203
   H        6.46261        -4.48049        18.60257
   H        7.77955        -9.84601        20.30979
   H       10.51924       -11.70784        15.56984
   H        9.79387       -12.96327        17.65239
*
