# ORCA input file
# SCF done       -253.694372608951          0.000575628137
! CAM-B3LYP def2-SVP def2/J RIJCOSX Grid4 TightSCF
%maxcore 5000
%tddft
    Mode sTDDFT
    Ethresh 5.0
    maxcore 5000
end

%pal
  nprocs 6
  end
* xyz 0 1
   C       -3.17238        -0.76036        -0.30275
   O       -3.32202        -0.29350        -1.40741
   C       -2.44859        -2.01343         0.02495
   C       -2.50450        -2.25141         1.40832
   C       -1.89919        -3.37157         1.95354
   C       -1.24135        -4.24114         1.09570
   C       -1.17658        -4.01882        -0.27841
   C       -1.79102        -2.88846        -0.82236
   F       -1.73043        -2.68012        -2.13179
   F       -0.53320        -4.88041        -1.06875
   F       -0.65233        -5.32693         1.60037
   C       -3.25506        -1.16412         2.03860
   C       -3.44882        -1.03339         3.38940
   C       -2.98724        -1.95783         4.35214
   N       -2.64856        -2.66598         5.18921
   C       -4.10996         0.03146         4.03980
   N       -4.61596         0.85748         4.65706
   C       -3.68927        -0.26010         0.99037
   C       -4.51505         0.81524         1.20377
   C       -4.96870         1.83101         0.34700
   C       -4.65096         2.19139        -0.96042
   C       -5.33670         3.32194        -1.37358
   C       -6.20388         3.84334        -0.38091
   S       -6.15235         2.94754         1.05797
   C       -6.86122         4.97743        -0.90758
   C       -6.41643         5.18237        -2.22696
   C       -5.43642         4.15840        -2.55896
   C       -4.74703         4.04183        -3.72904
   C       -4.95107         4.93940        -4.79966
   N       -5.11945         5.67015        -5.66718
   C       -3.76814         3.04921        -3.95781
   N       -2.95343         2.27184        -4.16870
   C       -7.00623         6.28884        -2.83183
   C       -7.89629         6.92772        -1.98383
   S       -8.00496         6.15116        -0.41883
   C       -8.65949         8.09147        -2.27498
   C       -8.70683         8.76694        -3.46450
   C       -9.54636         9.90254        -3.43991
   C       -9.78861        10.82265        -4.48286
   C       -9.12743        10.73717        -5.76765
   C       -9.64871        11.01644        -7.00012
   C       -8.70641        10.87039        -8.04008
   C       -7.45968        10.49694        -7.62544
   S       -7.44139        10.30822        -5.90708
   C       -6.24038        10.25370        -8.43433
  Cl       -9.11260        11.14436        -9.68975
   C      -10.69179        11.84320        -4.20296
   C      -11.32586        12.00499        -2.94461
   C      -11.05964        11.10247        -1.89271
   C      -10.18460        10.06174        -2.18337
   S       -9.68458         8.82610        -1.06247
   C      -11.63007        11.25158        -0.57022
   C      -12.04817        10.26611         0.27879
   C      -12.49078        10.76554         1.52237
   C      -12.40721        12.12216         1.64925
   S      -11.77659        12.81334         0.19406
   C      -12.76963        12.97419         2.80889
  Cl      -13.08341         9.73361         2.76624
   C      -12.19365        13.11983        -2.93321
   C      -12.20866        13.81631        -4.10977
   S      -11.15156        13.10701        -5.31044
   C      -12.96952        14.97565        -4.41854
   C      -12.96738        15.69037        -5.60201
   C      -13.84514        16.77247        -5.55743
   C      -14.51962        16.88029        -4.32748
   S      -14.06756        15.65173        -3.22913
   C      -15.38479        17.99978        -4.37848
   C      -15.25683        18.59981        -5.65032
   C      -14.27629        17.85761        -6.42391
   C      -13.83426        18.15453        -7.67915
   C      -14.33072        19.27389        -8.38092
   N      -14.74978        20.18835        -8.93119
   C      -12.86284        17.37382        -8.34086
   N      -12.07888        16.73369        -8.87869
   C      -16.05161        19.72466        -5.80030
   C      -16.78975        20.00566        -4.65608
   S      -16.49959        18.81564        -3.38823
   C      -17.72419        21.03433        -4.43607
   C      -17.92129        22.18262        -5.14935
   C      -19.22944        22.88017        -5.01231
   O      -20.07217        22.67251        -4.17641
   C      -19.27156        23.83146        -6.15036
   C      -18.03989        23.80740        -6.83042
   C      -17.13352        22.89527        -6.12789
   C      -15.76688        22.93525        -6.22225
   C      -15.05896        23.76716        -7.11643
   N      -14.43450        24.42467        -7.81859
   C      -14.90122        22.22234        -5.36909
   N      -14.16098        21.67857        -4.68065
   C      -17.83886        24.57521        -7.96360
   C      -18.88580        25.37452        -8.40101
   C      -20.10739        25.42452        -7.73136
   C      -20.30385        24.64128        -6.59123
   F      -21.47234        24.68612        -5.96167
   F      -21.08682        26.21178        -8.18059
   F      -18.72317        26.11623        -9.49700
   H       -1.91691        -3.59936         3.00611
   H       -4.90075         0.91601         2.21141
   H       -3.95535         1.63195        -1.55992
   H       -6.80310         6.62517        -3.83096
   H       -8.16346         8.44973        -4.33348
   H      -10.67550        11.27518        -7.17940
   H       -6.47550        10.35726        -9.49049
   H       -5.85257         9.25228        -8.25139
   H       -5.45843        10.96733        -8.17525
   H      -12.08330         9.22300         0.02562
   H      -13.25020        12.36758         3.57225
   H      -13.44840        13.76976         2.50497
   H      -11.88084        13.43783         3.23708
   H      -12.79843        13.40288        -2.09128
   H      -12.35169        15.42120        -6.44145
   H      -16.14058        20.29359        -6.70742
   H      -18.44154        20.87038        -3.63750
   H      -16.91727        24.56788        -8.52210
*
