# ORCA input file
# SCF done       -158.142588825077          0.000946595020
! CAM-B3LYP def2-SVP def2/J RIJCOSX Grid4 TightSCF
%maxcore 5000
%tddft
    Mode sTDDFT
    Ethresh 5.0
    maxcore 5000
end

%pal
  nprocs 6
  end
* xyz 0 1
   O       -0.72737         1.93471         3.70226
   C       -1.08143         1.99111         2.39084
   N       -1.61728         0.88800         1.95741
   C       -1.62600         0.04248         3.03377
   C       -1.07214         0.70624         4.10290
   C       -2.15952        -1.31257         2.95986
   O       -2.19109        -2.08598         3.88126
   C       -0.86615         3.18038         1.63675
   C       -1.17543         3.37900         0.30807
   C       -0.85051         4.67420        -0.10127
   C       -0.29225         5.44776         0.93203
   S       -0.16283         4.58887         2.39958
   C       -0.01811         6.74669         0.42821
   C       -0.40715         6.79460        -0.91914
   C       -0.93097         5.49000        -1.30149
   C       -1.38773         5.11868        -2.53089
   C       -1.40499         6.01439        -3.62162
   N       -1.41404         6.74112        -4.50834
   C       -1.86639         3.81848        -2.80138
   N       -2.26072         2.76802        -3.03516
   C       -0.19948         8.04521        -1.50078
   C        0.34964         8.94540        -0.60602
   S        0.61588         8.23481         0.97815
   C        0.67863        10.30464        -0.84413
   C        1.30825        11.18639         0.01460
   C        1.46089        12.44994        -0.55668
   C        0.93391        12.52901        -1.85655
   S        0.26371        11.04967        -2.38161
   C        1.13318        13.84487        -2.34654
   C        1.79641        14.59501        -1.36107
   C        2.02012        13.74536        -0.20133
   C        2.62122        14.09115         0.97259
   C        3.12644        15.38871         1.20139
   N        3.53656        16.44319         1.38625
   C        2.77486        13.17339         2.03337
   N        2.89441        12.42859         2.89667
   C        2.04412        15.91018        -1.75552
   C        1.56445        16.16653        -3.02641
   S        0.79943        14.75820        -3.74923
   C        1.63774        17.38199        -3.75484
   C        1.04613        17.66698        -4.97192
   C        1.34053        18.96072        -5.40198
   C        2.16819        19.65969        -4.51027
   S        2.57220        18.73337        -3.13337
   C        2.42813        20.94973        -5.04696
   C        1.75395        21.06275        -6.27622
   C        1.04053        19.82449        -6.53604
   C        0.24703        19.53094        -7.60536
   C        0.01541        20.45511        -8.64645
   N       -0.17434        21.19979        -9.49703
   C       -0.40031        18.28397        -7.73767
   N       -0.93011        17.27212        -7.83695
   C        1.96440        22.29796        -6.89396
   C        2.79067        23.10152        -6.13804
   S        3.31641        22.35236        -4.65107
   C        3.24765        24.41558        -6.44807
   N        4.05107        25.14184        -5.72793
   C        4.21200        26.30794        -6.42650
   C        3.46541        26.21895        -7.57769
   O        2.85620        25.02856        -7.59565
   C        5.05634        27.39579        -5.94920
   O        5.22929        28.43462        -6.53146
   H       -0.88952         0.41961         5.11786
   H       -2.54210        -1.56695         1.95656
   H       -1.61425         2.60950        -0.29925
   H       -0.42961         8.30278        -2.51899
   H        1.63568        10.90642         0.99979
   H        2.54112        16.65451        -1.15963
   H        0.43418        16.95987        -5.50263
   H        1.55205        22.60616        -7.83749
   H        3.30905        26.89522        -8.39259
   H        5.53471        27.17158        -4.97996
*
