# ORCA input file
# SCF done       -177.850756116397          0.000608063603
! CAM-B3LYP def2-SVP def2/J RIJCOSX Grid4 TightSCF
%maxcore 5000
%tddft
    Mode sTDDFT
    Ethresh 5.0
    maxcore 5000
end

%pal
  nprocs 6
  end
* xyz 0 1
   C        5.59860         7.61118        -5.35470
   C        4.66623         8.37568        -5.99941
   F        5.01813         9.05809        -7.10228
   C        3.34084         8.47985        -5.55390
   C        2.96319         7.79367        -4.43369
   C        3.88406         6.99090        -3.72898
   C        5.22794         6.89907        -4.19731
   C        6.17235         6.10890        -3.50237
   C        5.78501         5.43532        -2.37468
   C        4.43578         5.51759        -1.92144
   C        3.50429         6.27520        -2.57250
   C        4.26972         4.67810        -0.72304
   O        3.28692         4.53686        -0.03483
   C        5.57602         3.96971        -0.55855
   C        6.53915         4.59533        -1.44915
   C        7.90023         4.59175        -1.31198
   C        8.59199         3.95968        -0.25773
   N        9.20438         3.51246         0.60372
   C        8.77475         5.30228        -2.16219
   N        9.52529         5.85417        -2.83173
   C        5.64462         2.88189         0.24080
   C        6.67972         1.88794         0.29158
   C        7.05472         1.25809         1.48969
   N        8.00101         0.35621         1.54431
   C        8.62767         0.04144         0.40629
   N        8.30332         0.52328        -0.79670
   C        7.34690         1.41469        -0.85079
   C        9.70015        -0.90105         0.49687
   C       10.44900        -1.44497        -0.52723
   C       11.39941        -2.34131        -0.03925
   C       11.36152        -2.45772         1.36398
   S       10.16267        -1.48030         2.07641
   C       12.35558        -3.39363         1.76107
   C       13.01107        -3.86879         0.61453
   C       12.43592        -3.22132        -0.55512
   C       12.79386        -3.40819        -1.85770
   C       13.82467        -4.29785        -2.22794
   N       14.66427        -5.01840        -2.52878
   C       12.16034        -2.73040        -2.92126
   N       11.65191        -2.18895        -3.79430
   C       13.99699        -4.81389         0.90749
   C       14.10131        -5.05059         2.26280
   S       12.95970        -4.09019         3.19253
   C       14.97634        -5.96478         2.93620
   C       15.16063        -5.94288         4.32833
   N       15.91704        -6.80547         4.96141
   C       16.49263        -7.76480         4.23792
   N       16.43782        -7.84431         2.90541
   C       15.71300        -6.95730         2.26778
   C       17.26702        -8.75203         4.95987
   C       17.50006       -10.02639         4.59251
   C       18.59060       -10.81470         5.25268
   O       19.14528       -10.54645         6.28989
   C       18.86290       -11.93128         4.33082
   C       19.84766       -12.87607         4.39768
   C       19.93596       -13.85334         3.38246
   C       19.00510       -13.82479         2.30208
   C       19.10533       -14.79727         1.28780
   C       20.08508       -15.74769         1.36375
   C       21.00657       -15.79516         2.41969
   C       20.92651       -14.85721         3.41058
   F       20.18107       -16.67801         0.39848
   C       17.99328       -12.83849         2.25978
   C       17.91488       -11.91213         3.26554
   C       16.96300       -10.83382         3.50679
   C       15.70566       -10.75345         2.98212
   C       14.71146        -9.85158         3.41992
   N       13.83580        -9.19009         3.75531
   C       15.21398       -11.63255         1.99273
   N       14.77309       -12.31309         1.18112
   H        6.61073         7.55718        -5.72407
   H        2.64960         9.09828        -6.10413
   H        1.94832         7.85817        -4.07137
   H        7.17902         6.04925        -3.88471
   H        2.48953         6.32815        -2.20758
   H        4.78240         2.71458         0.87949
   H        6.58589         1.52020         2.42906
   H        7.06366         1.75050        -1.84151
   H       10.28588        -1.18709        -1.55739
   H       14.61365        -5.29742         0.17245
   H       14.68170        -5.18863         4.94150
   H       15.69760        -7.05008         1.19003
   H       17.73198        -8.40311         5.87426
   H       20.55015       -12.87784         5.21761
   H       18.41051       -14.79366         0.46261
   H       21.75712       -16.56956         2.42632
   H       21.62498       -14.87320         4.23357
   H       17.30786       -12.83346         1.42712
*
