# ORCA input file
# SCF done       -211.960432607783          0.000394418803
! CAM-B3LYP def2-SVP def2/J RIJCOSX Grid4 TightSCF
%maxcore 5000
%tddft
    Mode sTDDFT
    Ethresh 5.0
    maxcore 5000
end

%pal
  nprocs 6
  end
* xyz 0 1
   C        0.88963         3.99034         3.03647
   C        1.42456         2.73026         2.97012
   C        2.79735         2.44519         3.13237
   N        3.89912         2.14730         3.25350
   C        0.70635         1.53780         2.73886
   N        0.19901         0.52358         2.55797
   C        1.64679         5.21302         3.28751
   C        0.75013         6.31033         3.30170
   C        1.15893         7.60446         3.51477
   C        2.52340         7.82955         3.72322
   C        3.41389         6.72904         3.70646
   C        2.99819         5.42033         3.49199
   S        5.05373         7.23028         3.98226
   C        4.52932         8.88792         4.11548
   C        3.19451         9.05966         3.96114
  Br        5.79213        10.23443         4.44329
   C       -0.61366         5.81904         3.05489
   O       -1.62707         6.49587         3.00551
   C       -0.50506         4.36669         2.88043
   C       -1.54517         3.51881         2.59991
   C       -2.91078         3.78544         2.41270
   C       -3.82041         2.76730         2.09830
   C       -5.10832         3.23916         1.93682
   C       -5.19319         4.63870         2.13533
   S       -3.69847         5.36004         2.51371
   C       -6.53975         5.02819         1.93251
   C       -7.30118         3.88824         1.60733
   C       -6.42903         2.72613         1.60338
   C       -6.77809         1.43567         1.33523
   C       -5.83931         0.38195         1.35572
   N       -5.08183        -0.47830         1.36987
   C       -8.10289         1.06767         1.01637
   N       -9.17701         0.76341         0.75548
   C       -8.63976         4.18089         1.36835
   C       -8.90820         5.53353         1.50638
   S       -7.47515         6.45050         1.94997
   C      -10.16919         6.17490         1.29139
   C      -10.37320         7.54101         1.44731
   F       -9.35884         8.32255         1.85948
   C      -11.58790         8.18133         1.18564
   F      -11.61860         9.51326         1.37391
   C      -12.72748         7.52529         0.73522
   C      -12.57435         6.11566         0.59571
   C      -11.32423         5.45557         0.86857
   N      -11.41185         4.14273         0.66749
   S      -12.89623         3.76910         0.19140
   N      -13.50982         5.25019         0.21150
   C      -13.94710         8.19588         0.40389
   C      -15.09355         7.61155        -0.11085
   C      -16.08567         8.55056        -0.37167
   C      -15.69536         9.86462        -0.04742
   S      -14.11304         9.93752         0.57448
   C      -16.75617        10.74427        -0.37933
   C      -17.81499         9.98263        -0.91487
   C      -17.42680         8.58252        -0.93057
   C      -18.15669         7.53637        -1.41327
   C      -17.67764         6.20930        -1.39482
   N      -17.29325         5.12952        -1.37499
   C      -19.44008         7.73277        -1.96582
   N      -20.48215         7.91225        -2.40959
   C      -18.88701        10.76239        -1.32713
   C      -18.66256        12.11547        -1.11724
   S      -17.10346        12.40887        -0.35593
   C      -19.51174        13.20771        -1.40229
   C      -20.55861        13.26498        -2.27058
   C      -21.00522        12.40756        -3.34974
   C      -20.22412        11.61703        -4.15243
   C      -20.70878        10.92001        -5.27965
   N      -21.04905        10.33762        -6.20773
   C      -18.82877        11.48374        -4.01694
   N      -17.68755        11.36546        -3.96885
   C      -22.39656        12.75114        -3.62463
   C      -22.72206        13.93849        -2.92078
   C      -21.56230        14.35663        -2.11142
   O      -21.44808        15.34406        -1.42348
   C      -23.95492        14.53730        -3.01747
   C      -24.91303        13.92937        -3.83563
   C      -24.58369        12.73246        -4.51750
   C      -23.33454        12.13068        -4.42697
   S      -25.91862        12.14537        -5.45983
   C      -26.88686        13.49876        -4.93897
   C      -26.24594        14.34698        -4.09964
  Br      -28.65088        13.66426        -5.55169
   H        0.44913         8.41671         3.51983
   H        3.71783         4.61919         3.48849
   H        2.70248        10.01371         4.01229
   H       -1.30479         2.46833         2.48920
   H       -3.51673         1.74032         1.99587
   H       -9.40101         3.47203         1.10107
   H      -15.16829         6.55386        -0.28216
   H      -19.80739        10.37700        -1.72664
   H      -19.35453        14.10793        -0.81580
   H      -24.17420        15.44605        -2.47939
   H      -23.13000        11.21443        -4.95565
   H      -26.69310        15.23101        -3.68320
*
