# ORCA input file
# SCF done       -204.991668025719          0.000463890107
! CAM-B3LYP def2-SVP def2/J RIJCOSX Grid4 TightSCF
%maxcore 5000
%tddft
    Mode sTDDFT
    Ethresh 5.0
    maxcore 5000
end

%pal
  nprocs 6
  end
* xyz 0 1
   C        1.52009         5.27269         1.40495
   C        2.13405         4.12715         0.96816
   C        3.53230         3.97293         0.85809
   N        4.65897         3.78389         0.74577
   C        1.48370         2.94067         0.56853
   N        1.03520         1.93982         0.22778
   C        2.21204         6.49026         1.81908
   C        1.24765         7.45054         2.21318
   C        1.58439         8.70654         2.65561
   C        2.94303         9.03410         2.71165
   C        3.90086         8.07028         2.31589
   C        3.55824         6.79945         1.86928
   S        5.52021         8.68171         2.46147
   C        4.89782        10.20278         3.04390
   C        3.54680        10.25247         3.12608
  Br        6.08909        11.58120         3.48810
   C       -0.09614         6.87132         2.05963
   O       -1.15314         7.42569         2.31424
   C        0.09560         5.51316         1.54524
   C       -0.90802         4.62947         1.23469
   C       -2.30013         4.77227         1.31008
   C       -3.16770         3.74927         0.90450
   C       -4.49711         4.09790         1.03305
   C       -4.65931         5.40614         1.55387
   S       -3.18370         6.19300         1.87509
   C       -6.04515         5.67591         1.62332
   C       -6.75908         4.55961         1.15078
   C       -5.80829         3.52454         0.77453
   C       -6.09366         2.28369         0.28746
   C       -5.08529         1.35297        -0.04248
   N       -4.27190         0.59192        -0.31256
   C       -7.42008         1.84581         0.08656
   N       -8.49861         1.49141        -0.07376
   C       -8.13669         4.75242         1.15885
   C       -8.49189         6.00375         1.64303
   S       -7.08206         6.95037         2.09231
   C       -9.81815         6.50379         1.72728
   C      -10.33082         7.64670         2.33214
   C       -9.54043         8.66941         3.08431
   C       -9.03575         9.77018         2.14865
   C      -11.70984         7.77269         2.14472
   C      -12.28633         6.75582         1.40814
   S      -11.08331         5.58966         0.94686
   C      -13.62771         6.57355         0.98429
   C      -14.63692         7.44974         1.21539
   C      -15.96309         7.29369         0.73857
   C      -16.51670         6.26382        -0.00909
   C      -17.85129         6.50165        -0.32124
   C      -18.33081         7.72282         0.19082
   S      -17.13047         8.56716         1.06232
   C      -19.67694         7.88753        -0.21207
   C      -20.05130         6.76367        -0.97939
   C      -18.91980         5.86022        -1.07352
   C      -18.86759         4.68238        -1.75934
   C      -17.70498         3.88450        -1.79307
   N      -16.75811         3.23841        -1.80969
   C      -19.98375         4.19994        -2.47499
   N      -20.90148         3.82243        -3.04960
   C      -21.34354         6.85441        -1.47671
   C      -21.96889         8.03646        -1.10614
   S      -20.93248         9.02800        -0.08221
   C      -23.26953         8.48493        -1.41717
   C      -24.09134         8.07396        -2.42385
   C      -23.87639         7.30119        -3.62922
   C      -22.72648         7.23402        -4.37362
   C      -22.63183         6.57281        -5.61630
   N      -22.50146         6.05522        -6.63200
   C      -21.53049         7.90058        -4.04551
   N      -20.54271         8.44921        -3.84057
   C      -25.18361         6.83455        -4.08080
   C      -26.18862         7.49780        -3.33208
   C      -25.54960         8.36099        -2.32051
   O      -26.08259         9.11170        -1.53626
   C      -27.52866         7.30105        -3.56242
   C      -27.89219         6.39872        -4.56790
   C      -26.88005         5.72550        -5.29415
   C      -25.52440         5.93053        -5.06805
   S      -27.55186         4.64562        -6.47650
   C      -29.16112         5.11146        -5.99316
   C      -29.19603         6.02564        -4.99445
  Br      -30.64244         4.34532        -6.84992
   H        0.82448         9.41402         2.94822
   H        4.32736         6.10371         1.57932
   H        2.99754        11.11197         3.46447
   H       -0.60613         3.66030         0.85655
   H       -2.80506         2.80784         0.53087
   H       -8.86458         4.03093         0.83384
   H       -8.69514         8.20168         3.59188
   H      -10.18419         9.11587         3.84480
   H       -8.39600         9.35527         1.37375
   H       -8.46521        10.50513         2.70988
   H       -9.87405        10.27077         1.66978
   H      -12.27305         8.59657         2.54478
   H      -13.82126         5.67439         0.41703
   H      -14.44295         8.35125         1.77911
   H      -15.96689         5.39187        -0.31065
   H      -21.83399         6.08875        -2.04979
   H      -23.70668         9.21069        -0.73812
   H      -28.27393         7.82623        -2.98604
   H      -24.78753         5.38946        -5.63822
   H      -30.10268         6.42159        -4.57479
*
