# ORCA input file
# SCF done       -213.460692206917          0.000852650285
! CAM-B3LYP def2-SVP def2/J RIJCOSX Grid4 TightSCF
%maxcore 5000
%tddft
    Mode sTDDFT
    Ethresh 5.0
    maxcore 5000
end

%pal
  nprocs 6
  end
* xyz 0 1
   C       -0.80510        -3.26823        -4.33591
   C        0.05966        -4.32757        -4.25542
   C        0.45892        -5.10176        -5.36414
   N        0.79614        -5.77317        -6.23118
   C        0.71929        -4.69071        -3.06275
   N        1.30078        -4.98068        -2.11651
   C       -1.26660        -2.64690        -5.57508
   C       -1.65795        -1.32357        -5.29830
   C       -2.09803        -0.47689        -6.29522
   C       -2.16088        -0.96494        -7.59500
   C       -1.78568        -2.28495        -7.87459
   C       -1.33154        -3.13244        -6.86946
  Cl       -1.88516        -2.87685        -9.48204
  Cl       -2.70436         0.05739        -8.86184
   C       -1.52973        -1.06176        -3.84787
   O       -1.72514        -0.02792        -3.25591
   C       -1.17032        -2.37994        -3.25343
   C       -1.33386        -2.56685        -1.91440
   C       -1.49592        -3.75459        -1.16943
   C       -1.46847        -3.83704         0.21697
   C       -1.75381        -5.11575         0.67797
   C       -2.03232        -6.02206        -0.36751
   S       -1.92918        -5.29971        -1.90292
   C       -2.33935        -7.28223         0.19641
   C       -2.25941        -7.17884         1.59688
   C       -1.88250        -5.81583         1.94472
   C       -1.69796        -5.30857         3.19646
   C       -1.86071        -6.09965         4.35396
   N       -1.99479        -6.74757         5.28997
   C       -1.34223        -3.96051         3.41756
   N       -1.06117        -2.86499         3.60292
   C       -2.56502        -8.37169         2.24721
   C       -2.87027        -9.38394         1.35236
   S       -2.77516        -8.85264        -0.31838
   C       -3.24923       -10.71532         1.65623
   C       -3.47939       -11.75066         0.76739
   C       -3.86547       -12.91999         1.41965
   C       -3.93597       -12.77005         2.81639
   S       -3.51176       -11.19746         3.32664
   C       -4.36182       -13.99779         3.38189
   C       -4.55115       -14.92782         2.34395
   C       -4.24252       -14.28266         1.07710
   C       -4.30362       -14.83507        -0.16771
   C       -4.69082       -16.17681        -0.37181
   N       -5.00613       -17.26744        -0.53035
   C       -3.99020       -14.09732        -1.32934
   N       -3.73711       -13.49323        -2.27007
   C       -4.99365       -16.16774         2.80067
   C       -5.15225       -16.18527         4.17528
   S       -4.73359       -14.64679         4.91630
   C       -5.61606       -17.25833         4.97656
   C       -5.86993       -17.24233         6.33786
   C       -6.34903       -18.46893         6.79158
   C       -6.45128       -19.42885         5.76837
   S       -5.96325       -18.81757         4.24806
   C       -6.95058       -20.63062         6.32189
   C       -7.17819       -20.42804         7.70312
   C       -6.79129       -19.06870         8.04284
   C       -6.81759       -18.47606         9.26979
   C       -7.22207       -19.15167        10.44247
   N       -7.52412       -19.68114        11.41271
   C       -6.41443       -17.13558         9.45337
   N       -6.09275       -16.04504         9.60052
   C       -7.70542       -21.54280         8.33876
   C       -7.87889       -22.61079         7.46599
   S       -7.35401       -22.20293         5.82417
   C       -8.32655       -23.93141         7.66342
   C       -8.98949       -24.49155         8.72179
   C       -9.29467       -25.90847         8.83418
   C       -8.74862       -26.92793         8.09984
   C       -9.07650       -28.29012         8.27443
   N       -9.30128       -29.41203         8.36034
   C       -7.76367       -26.78265         7.09899
   N       -6.95085       -26.75022         6.28846
   C      -10.23100       -26.07389         9.94178
   C      -10.44515       -24.82219        10.54275
   C       -9.66828       -23.78368         9.83457
   O       -9.65571       -22.60177        10.09824
   C      -11.28229       -24.66684        11.62869
   C      -11.92574       -25.79167        12.12937
   C      -11.72231       -27.04304        11.53447
   C      -10.87618       -27.19381        10.44125
  Cl      -12.52944       -28.42360        12.15777
  Cl      -12.97397       -25.64436        13.47975
   H       -2.38457         0.53801        -6.06924
   H       -1.05308        -4.14440        -7.11559
   H       -1.45263        -1.65182        -1.34057
   H       -1.23010        -2.99310         0.83898
   H       -2.56937        -8.51561         3.31279
   H       -3.36654       -11.64078        -0.29629
   H       -5.20304       -17.01996         2.17929
   H       -5.71565       -16.37077         6.94836
   H       -7.96352       -21.59622         9.38016
   H       -8.11994       -24.58474         6.82348
   H      -11.42839       -23.69575        12.07478
   H      -10.74810       -28.17226        10.00843
*
