# ORCA input file
# SCF done       -169.246380027297          0.000863185890
! CAM-B3LYP def2-SVP def2/J RIJCOSX Grid4 TightSCF
%maxcore 5000
%tddft
    Mode sTDDFT
    Ethresh 5.0
    maxcore 5000
end

%pal
  nprocs 6
  end
* xyz 0 1
   C      -17.65387        10.57742         0.51456
   C      -16.83577        10.93394        -0.51226
   C      -15.51614        11.14832        -0.06760
   C      -15.37747        10.94602         1.31227
   S      -16.84988        10.49685         2.05022
   C      -14.02129        11.18134         1.67332
   C      -13.31181        11.53012         0.51734
   C      -14.23501        11.54781        -0.61065
   C      -13.94114        11.91902        -1.89205
   C      -12.66341        12.39339        -2.25512
   N      -11.63590        12.80901        -2.55054
   C      -14.89888        11.88316        -2.92476
   N      -15.66776        11.84102        -3.77537
   C      -11.95477        11.74772         0.75215
   C      -11.62985        11.58703         2.08535
   S      -13.02404        11.15245         3.06270
   C      -10.34855        11.74006         2.67281
   C      -10.00994        11.80652         4.00748
   C       -8.64533        11.98751         4.22298
   C       -7.90525        12.04200         3.05912
   S       -8.93809        11.88143         1.66288
   C       -6.49767        12.20588         2.90895
   C       -5.85688        12.01480         1.70833
   C       -4.48697        12.15075         1.49549
   C       -3.60536        12.55510         2.60171
   C       -4.01806        12.79412         3.86450
   S       -5.64929        12.66591         4.37997
   C       -2.29423        12.59613         2.05343
   C       -2.33977        12.22294         0.71323
   C       -1.06096        12.23334         0.11400
   C       -0.09966        12.60681         0.99861
   S       -0.70009        12.95771         2.58483
   C       -3.70527        11.93670         0.34027
   C       -4.01886        11.48346        -0.95763
   C       -5.21930        11.21266        -1.54416
   C       -5.31324        10.69077        -2.84994
   S       -3.90327        10.28428        -3.80347
   C       -4.83827         9.69698        -5.15736
   C       -6.20431         9.82926        -4.87590
   C       -6.44642        10.37985        -3.58736
   S       -8.13975        10.53001        -3.23491
   C       -8.51399         9.86151        -4.80392
   C       -9.89292         9.67365        -5.25459
   O      -10.17835         9.22124        -6.33841
   O      -10.78253        10.04214        -4.32664
   C      -12.15725         9.93911        -4.69271
   C      -12.59171        11.10138        -5.57347
   C       -7.41408         9.54547        -5.54734
   C       -4.13326         9.18013        -6.25952
   C       -4.67480         8.65861        -7.39548
   C       -3.92103         8.11706        -8.46106
   C       -2.54483         7.97562        -8.59225
   C       -2.19105         7.37253        -9.79421
   C       -3.29613         7.04792       -10.59767
   S       -4.77493         7.48753        -9.86588
   C       -2.82033         6.43916       -11.78903
   C       -1.41987         6.37903       -11.73636
   C       -0.97403         6.95880       -10.48869
   C        0.30962         7.09263       -10.04112
   C        1.41793         6.65353       -10.79358
   N        2.32478         6.29855       -11.39958
   C        0.61263         7.67392        -8.79352
   N        0.86475         8.15258        -7.78177
   C       -0.86433         5.78315       -12.88612
   C       -1.83009         5.41088       -13.76875
   S       -3.44144         5.77223       -13.23300
   H      -18.70030        10.35065         0.47473
   H      -17.16397        11.03364        -1.53078
   H      -11.22679        12.01451         0.00731
   H      -10.74070        11.73510         4.79360
   H       -8.19980        12.06721         5.19857
   H       -6.48771        11.72223         0.88186
   H       -3.33801        13.07856         4.65177
   H       -0.85493        11.98204        -0.91059
   H        0.95378        12.70348         0.82228
   H       -3.14626        11.31587        -1.58079
   H       -6.16353        11.38264        -1.04977
   H      -12.69931         9.93199        -3.74469
   H      -12.31464         8.98911        -5.21480
   H      -12.32335        12.04516        -5.10386
   H      -13.66796        11.06845        -5.71741
   H      -12.10064        11.03591        -6.54105
   H       -7.51286         9.13021        -6.53241
   H       -3.05646         9.20281        -6.16002
   H       -5.74623         8.63618        -7.51796
   H       -1.84650         8.29616        -7.84186
   H        0.18697         5.63618       -13.05396
   H       -1.70423         4.93729       -14.72163
*
