# ORCA input file
# SCF done       -222.946053555689          0.000846568145
! CAM-B3LYP def2-SVP def2/J RIJCOSX Grid4 TightSCF
%maxcore 5000
%tddft
    Mode sTDDFT
    Ethresh 5.0
    maxcore 5000
end

%pal
  nprocs 6
  end
* xyz 0 1
   C        4.74461        -0.68642         4.40778
   C        3.85584        -1.06956         3.45046
   C        3.06884         0.01542         3.01772
   C        3.39466         1.20674         3.67582
   S        4.65164         0.99701         4.81116
   C        2.55718         2.24465         3.17723
   C        1.70630         1.70360         2.20519
   C        1.99805         0.27967         2.07468
   C        1.38734        -0.61256         1.24332
   C        0.34528        -0.23750         0.36921
   N       -0.50413         0.06075        -0.34103
   C        1.75451        -1.97412         1.20360
   N        2.04962        -3.08154         1.16686
   C        0.84306         2.64849         1.64611
   C        1.03354         3.90569         2.19063
   S        2.29736         3.91462         3.41075
   C        0.34820         5.10774         1.86760
   C       -0.62282         5.29801         0.90152
   C       -1.06706         6.62154         0.86228
   C       -0.43129         7.44183         1.80788
   S        0.71349         6.58889         2.74185
   C       -0.94582         8.75802         1.68999
   C       -1.90614         8.77188         0.66623
   C       -2.01594         7.43080         0.11218
   C       -2.83615         7.02343        -0.89846
   C       -3.71924         7.91059        -1.54879
   N       -4.43958         8.62977        -2.07722
   C       -2.85699         5.69109        -1.36219
   N       -2.87865         4.61009        -1.74345
   C       -2.47240        10.03288         0.46933
   C       -1.95090        10.97393         1.33674
   S       -0.74287        10.29158         2.41136
   C       -2.28652        12.35387         1.42994
   C       -3.14760        13.06296         0.63852
   C       -3.25909        14.42620         1.00415
   C       -2.41993        14.75199         2.10020
   S       -1.55470        13.35050         2.67289
   C       -2.33878        16.02031         2.64781
   C       -1.50560        16.31087         3.82200
   C       -0.16117        15.95279         3.84922
   C        0.61147        16.21789         4.96303
   C        0.06676        16.83879         6.08037
   C       -1.27760        17.19099         6.05133
   C       -2.05511        16.93425         4.93942
   C        0.91165        17.14123         7.27902
   C       -3.11567        17.01685         2.03228
   C       -3.95134        16.69546         0.93261
   C       -4.05944        15.41778         0.40810
   C       -4.96455        15.10592        -0.70568
   C       -4.93085        15.85362        -1.87830
   C       -5.78204        15.55468        -2.92532
   C       -6.69128        14.50985        -2.83074
   C       -6.72863        13.76973        -1.65310
   C       -5.87892        14.05922        -0.60515
   C       -7.61568        14.17578        -3.95984
   S       -4.83093        18.09802         0.37533
   C       -4.04321        19.10198         1.57828
   C       -3.17662        18.39125         2.35988
   C       -4.32129        20.49434         1.65015
   C       -5.23169        21.22013         0.90963
   C       -5.22111        22.57526         1.25088
   C       -4.29010        22.87682         2.25644
   S       -3.43572        21.49844         2.78993
   C       -4.34303        24.26945         2.52235
   C       -5.31181        24.84831         1.68814
   C       -5.89997        23.80261         0.86418
   C       -6.88298        23.94577        -0.07010
   C       -7.47060        25.19695        -0.35215
   N       -7.94848        26.21390        -0.58159
   C       -7.38005        22.85535        -0.81483
   N       -7.78967        21.97455        -1.42407
   C       -5.43026        26.22761         1.86973
   C       -4.55734        26.69890         2.83117
   S       -3.57628        25.41633         3.52823
   C       -4.38625        28.03667         3.27260
   C       -3.48685        28.50445         4.21161
   C       -3.59267        29.88473         4.39158
   C       -4.57919        30.46681         3.58593
   S       -5.37936        29.32237         2.60298
   C       -4.60465        31.86747         3.84555
   C       -3.63482        32.16088         4.81150
   C       -2.96362        30.93162         5.18897
   C       -1.95449        30.77764         6.09414
   C       -1.41613        31.86509         6.81346
   N       -0.97416        32.74451         7.40200
   C       -1.38025        29.51932         6.37043
   N       -0.91098        28.49745         6.59623
   C       -3.59084        33.53216         5.12958
   C       -4.50969        34.23623         4.41305
   S       -5.45125        33.25816         3.33519
   H        5.46614        -1.29400         4.91610
   H        3.77489        -2.07475         3.07931
   H        0.11293         2.44028         0.88633
   H       -0.97934         4.51185         0.26224
   H       -3.22581        10.26113        -0.26131
   H       -3.67520        12.63334        -0.19300
   H        0.28434        15.48192         2.98530
   H        1.65507        15.93774         4.96529
   H       -1.72168        17.66864         6.91316
   H       -3.10420        17.19343         4.94232
   H        1.72512        16.42553         7.37116
   H        0.31631        17.12065         8.18894
   H        1.34741        18.13667         7.18488
   H       -4.21777        16.65857        -1.97922
   H       -5.73576        16.14274        -3.83052
   H       -7.43438        12.95675        -1.55980
   H       -5.93615        13.48826         0.31062
   H       -7.46249        14.84608        -4.80155
   H       -8.65274        14.25472        -3.63597
   H       -7.44993        13.15216        -4.29369
   H       -2.58875        18.84210         3.14002
   H       -5.86231        20.76941         0.16445
   H       -6.10873        26.86815         1.33530
   H       -2.79604        27.86179         4.72731
   H       -2.92237        33.97646         5.84411
   H       -4.70194        35.28984         4.44645
*
