# ORCA input file
# SCF done       -201.913704390798          0.000500952946
! CAM-B3LYP def2-SVP def2/J RIJCOSX Grid4 TightSCF
%maxcore 5000
%tddft
    Mode sTDDFT
    Ethresh 5.0
    maxcore 5000
end

%pal
  nprocs 6
  end
* xyz 0 1
   C       -1.60890         1.80195        -3.09841
   C       -2.87932         1.28306        -3.15430
   N       -3.99303         2.17106        -3.23442
   O       -3.77973         3.33715        -2.97085
   O       -5.07434         1.73154        -3.56700
   C       -2.92120        -0.14154        -3.12322
   C       -4.15696        -0.97141        -3.13244
   C       -1.64642        -0.66512        -3.04705
   S       -0.42591         0.59156        -3.02387
   C       -1.21187        -2.02270        -2.99496
   C        0.10171        -2.44534        -2.91646
   C        0.20991        -3.83625        -2.89241
   C       -1.03442        -4.48023        -2.95199
   S       -2.33128        -3.37663        -3.03809
   C       -0.81992        -5.88482        -2.92487
   C        0.56030        -6.12413        -2.85265
   C        1.25519        -4.84674        -2.82387
   C        2.59980        -4.63753        -2.74130
   C        3.15428        -3.34033        -2.71324
   N        3.60267        -2.28540        -2.68910
   C        3.52445        -5.70151        -2.67380
   N        4.28051        -6.56133        -2.61710
   C        0.87443        -7.48530        -2.82671
   C       -0.25473        -8.27629        -2.87222
   S       -1.73177        -7.32850        -2.95322
   C       -0.31909        -9.69670        -2.86195
   C       -1.43466       -10.48328        -2.83243
   C       -1.15366       -11.87006        -2.82868
   C       -2.06886       -12.94278        -2.81767
   C       -3.50313       -12.74700        -2.87089
   C       -4.47343       -13.46578        -2.23205
   C       -5.77780       -13.03876        -2.56069
   C       -5.82735       -12.01105        -3.45743
   S       -4.22419       -11.53863        -3.90254
   C       -7.01815       -11.31625        -4.00806
  Cl       -7.18355       -13.76541        -1.88419
   C       -1.52046       -14.22110        -2.78031
   C       -0.12591       -14.47450        -2.79856
   C        0.78881       -13.40252        -2.83897
   C        0.24076       -12.12408        -2.82928
   S        1.15500       -10.64149        -2.87271
   C        2.22162       -13.59934        -2.91999
   C        3.20573       -12.86584        -2.32062
   C        4.50244       -13.29527        -2.67602
   C        4.53153       -14.34221        -3.55113
   S        2.91842       -14.82640        -3.94626
   C        5.70778       -15.02644        -4.14383
  Cl        5.92142       -12.54986        -2.04904
   C        0.15799       -15.85974        -2.76425
   C       -0.95626       -16.64902        -2.75014
   S       -2.43189       -15.70637        -2.76267
   C       -1.01286       -18.06934        -2.71945
   C       -2.13828       -18.86661        -2.66538
   C       -1.81372       -20.22486        -2.65363
   C       -0.42931       -20.45685        -2.70196
   S        0.47158       -19.00794        -2.75785
   C       -0.19255       -21.85660        -2.68692
   C       -1.44186       -22.50578        -2.63142
   C       -2.49868       -21.50605        -2.60561
   C       -3.84351       -21.72519        -2.54774
   C       -4.77763       -20.66802        -2.52349
   N       -5.53999       -19.81199        -2.50282
   C       -4.38823       -23.02579        -2.50797
   N       -4.83284       -24.08241        -2.47693
   C       -1.31718       -23.88611        -2.61676
   C        0.01136       -24.30272        -2.66857
   S        1.12161       -22.93888        -2.72858
   C        0.39002       -25.67155        -2.65972
   C        1.60231       -26.34385        -2.86444
   N        2.82330       -25.70759        -3.10633
   O        2.89481       -24.49447        -2.91168
   O        3.77118       -26.36259        -3.49400
   C        1.48634       -27.77314        -2.81089
   C        2.60313       -28.74190        -2.98009
   C        0.21045       -28.15421        -2.56044
   S       -0.87826       -26.83288        -2.40123
   H       -1.34612         2.84145        -3.11357
   H       -5.04109        -0.34243        -3.14778
   H       -4.18927        -1.61365        -2.25223
   H       -4.17623        -1.61194        -4.01430
   H        0.93146        -1.76254        -2.88017
   H        1.86726        -7.89473        -2.77566
   H       -2.42640       -10.07068        -2.80147
   H       -4.27883       -14.24800        -1.52251
   H       -7.88853       -11.96371        -3.93103
   H       -6.85882       -11.04763        -5.05008
   H       -7.22029       -10.40130        -3.44933
   H        3.02742       -12.07170        -1.62001
   H        5.85085       -14.71463        -5.17910
   H        5.57070       -16.10599        -4.13385
   H        6.60178       -14.77176        -3.57980
   H        1.15119       -16.26904        -2.73901
   H       -3.13455       -18.46318        -2.63630
   H       -2.14169       -24.57565        -2.57903
   H        3.42183       -28.50863        -2.30218
   H        3.00143       -28.68972        -3.99163
   H        2.24914       -29.75079        -2.78476
   H       -0.16392       -29.15298        -2.45877
*
