# ORCA input file
# SCF done       -208.433457761324          0.000366278081
! CAM-B3LYP def2-SVP def2/J RIJCOSX Grid4 TightSCF
%maxcore 5000
%tddft
    Mode sTDDFT
    Ethresh 5.0
    maxcore 5000
end

%pal
  nprocs 6
  end
* xyz 0 1
   C        4.99047         5.98218        -2.13889
   C        4.92862         7.25617        -1.63208
   C        5.52909         8.37298        -2.24452
   N        5.98303         9.31736        -2.71411
   C        4.33722         7.56697        -0.39142
   N        3.90162         7.84608         0.63396
   C        5.84124         5.55846        -3.24563
   C        6.05483         4.15308        -3.13573
   C        6.85340         3.48007        -4.01418
   C        7.47516         4.19191        -5.06558
   C        7.25155         5.59354        -5.18961
   C        6.42495         6.26659        -4.26021
   C        7.87309         6.28960        -6.24591
   C        8.68035         5.63567        -7.13647
   C        8.90098         4.25596        -7.01317
   C        8.31148         3.54980        -5.99979
   C        5.28850         3.63184        -1.98766
   O        5.26538         2.50195        -1.55562
   C        4.48359         4.78753        -1.50245
   C        3.41940         4.56967        -0.67872
   C        2.29177         5.38527        -0.44630
   C        1.40329         5.26783         0.61370
   C        0.36838         6.19199         0.54649
   C        0.44035         7.00656        -0.61024
   S        1.78652         6.63727        -1.58645
   C       -0.63528         7.90813        -0.59891
   C       -1.39771         7.68552         0.57197
   C       -0.77674         6.60600         1.33235
   C       -1.17324         6.12169         2.54512
   C       -2.24906         6.67081         3.27465
   N       -3.09343         7.12887         3.90121
   C       -0.50017         5.05376         3.17671
   N        0.03966         4.18100         3.68778
   C       -2.49365         8.51967         0.68058
   C       -2.59260         9.40818        -0.39687
   S       -1.27788         9.17167        -1.55352
   C       -3.52535        10.41400        -0.66260
   C       -4.65391        10.73895         0.06033
   C       -5.53261        11.80653        -0.23973
   C       -6.58046        11.93349         0.62608
   C       -6.58822        10.96285         1.64620
   S       -5.22214         9.88936         1.47996
   C       -7.49226        10.79706         2.68537
   C       -8.59686        11.59814         3.03429
   C       -9.25742        11.16214         4.14655
   C       -8.71749         9.98790         4.72270
   S       -7.33166         9.45944         3.79406
   C       -9.18463         9.37373         5.86531
   C       -8.71449         8.19623         6.45465
   C       -7.78237         7.26231         5.99031
   C       -7.59863         6.21904         6.87816
   C       -8.37537         6.33935         8.05393
   S       -9.35980         7.73734         8.03413
   C       -8.09139         5.24974         8.89293
   C       -7.13331         4.41839         8.25426
   C       -6.80227         5.00024         6.96665
   C       -5.95325         4.51476         6.01613
   C       -5.18074         3.34583         6.19486
   N       -4.52742         2.41120         6.30919
   C       -5.80338         5.12786         4.75287
   N       -5.70337         5.58387         3.70540
   C       -6.80778         3.29437         8.99809
   C       -7.49290         3.24388        10.20787
   S       -8.55928         4.64767        10.41277
   C       -7.47787         2.33978        11.28492
   C       -6.90664         1.10174        11.41926
   C       -6.94517         0.32737        12.64777
   C       -7.30984         0.77106        13.89460
   C       -7.31585        -0.03886        15.04938
   N       -7.35297        -0.63829        16.02824
   C       -7.69870         2.08453        14.22959
   N       -8.00951         3.12844        14.59635
   C       -6.45601        -1.01343        12.34860
   C       -6.05162        -1.05048        10.98507
   C       -6.29265         0.26187        10.36163
   O       -6.06447         0.55213         9.20576
   C       -5.53568        -2.17653        10.41230
   C       -5.40295        -3.34599        11.19405
   C       -5.81498        -3.32181        12.55758
   C       -6.34201        -2.13763        13.12291
   C       -5.68575        -4.49623        13.32647
   C       -5.17266        -5.63975        12.77731
   C       -4.76527        -5.66165        11.43518
   C       -4.87763        -4.53898        10.66047
   H        7.01127         2.41693        -3.90947
   H        6.26447         7.32688        -4.37987
   H        7.70283         7.35263        -6.33432
   H        9.15416         6.17853        -7.94067
   H        9.54038         3.75537        -7.72488
   H        8.47815         2.48717        -5.89996
   H        3.39846         3.59709        -0.19565
   H        1.54482         4.55376         1.40496
   H       -3.18771         8.50253         1.49950
   H       -3.33956        11.01411        -1.54440
   H       -5.36078        12.45220        -1.08267
   H       -7.34127        12.68910         0.54986
   H       -8.86806        12.47397         2.47305
   H      -10.11802        11.64856         4.57053
   H       -9.99973         9.87213         6.37442
   H       -7.28572         7.34321         5.04219
   H       -6.11783         2.52674         8.69638
   H       -8.03960         2.69711        12.14060
   H       -5.23287        -2.17342         9.37575
   H       -6.64754        -2.15482        14.15684
   H       -5.99929        -4.47393        14.35996
   H       -5.07749        -6.53411        13.37482
   H       -4.36216        -6.57246        11.01813
   H       -4.56567        -4.54929         9.62636
*
