# ORCA input file
# SCF done       -202.534560967439          0.000369696013
! CAM-B3LYP def2-SVP def2/J RIJCOSX Grid4 TightSCF
%maxcore 5000
%tddft
    Mode sTDDFT
    Ethresh 5.0
    maxcore 5000
end

%pal
  nprocs 6
  end
* xyz 0 1
   C        4.36618         2.31607         1.11231
   C        4.01421         2.98832        -0.05653
   C        3.52104         4.40570        -0.03128
   O        2.77542         4.83205        -0.86690
   O        3.95035         5.17619         0.97465
   C        4.05303         2.32987        -1.29711
   C        3.73317         2.99322        -2.50900
   N        3.54219         3.43159        -3.54986
   C        4.44004         0.98859        -1.37289
   C        4.78426         0.34283        -0.20629
   C        4.76766         0.99113         1.03826
   C        5.18418         0.03739         2.06815
   C        5.34639         0.35925         3.39372
   C        5.20045         1.66898         3.89459
   N        5.11823         2.72577         4.33722
   C        5.69370        -0.51788         4.44290
   N        5.94808        -1.14893         5.36857
   C        5.40280        -1.24220         1.42330
   C        5.18178        -1.07249        -0.02276
   O        5.30395        -1.87661        -0.92474
   C        5.79700        -2.37400         2.10217
   C        6.03082        -3.68419         1.67414
   C        5.91974        -4.31676         0.43625
   C        6.28572        -5.64822         0.49229
   C        6.68299        -6.06801         1.79339
   S        6.60345        -4.80821         2.92344
   C        7.05949        -7.42506         1.73021
   C        6.90839        -7.86822         0.40127
   C        6.43175        -6.76700        -0.41901
   C        6.24481        -6.78782        -1.77199
   C        6.49322        -7.94939        -2.53168
   N        6.70482        -8.89985        -3.13882
   C        5.83787        -5.65673        -2.51001
   N        5.52259        -4.74726        -3.13280
   C        7.29850        -9.18499         0.21656
   C        7.75632        -9.76770         1.39178
   S        7.67643        -8.65767         2.74719
   C        8.27112       -11.08962         1.51480
   C        8.64116       -11.80442         0.39717
   C        9.13942       -13.09856         0.40081
   C        9.30533       -13.85331         1.64241
   C        9.03085       -13.34225         2.86448
   S        8.42904       -11.75463         3.13176
   C        9.81047       -15.12044         1.23634
   C        9.96580       -15.15620        -0.15503
   C       10.47190       -16.39940        -0.59439
   C       10.68016       -17.25157         0.44326
   S       10.27825       -16.58979         1.99072
   C        9.55806       -13.88880        -0.69725
   C        9.56147       -13.39314        -2.01372
   C        9.92119       -13.99043        -3.18401
   C        9.90393       -13.29004        -4.42424
   C        9.80276       -11.91591        -4.52809
   C        9.71266       -11.20053        -5.70983
   C        9.72703       -11.85966        -7.01420
   C        9.87790       -13.19591        -7.16859
   S       10.02483       -14.29556        -5.85878
   C        9.56791       -10.81052        -7.96184
   C        9.45292        -9.57949        -7.30605
   C        9.29105        -8.51219        -8.21704
   C        9.28566        -8.94910        -9.50361
   S        9.47736       -10.66117        -9.67012
   C        9.55624        -9.80074        -5.88620
   C        9.52336        -8.88139        -4.82881
   C        9.25614        -7.53878        -4.87977
   C        9.25778        -6.78405        -3.69864
   C        8.91290        -5.46110        -3.57785
   C        8.88414        -4.70658        -2.34575
   C        9.19569        -5.11859        -1.06606
   C        9.09790        -4.23763         0.02560
   N        9.00871        -3.55019         0.94225
   C        9.56858        -6.41444        -0.68174
   N        9.83076        -7.46017        -0.27736
   C        8.41628        -3.39346        -2.68984
   C        8.14952        -3.29100        -4.04805
   C        7.64521        -2.03357        -4.40969
   C        7.54200        -1.21634        -3.32104
   S        8.05019        -1.94997        -1.84741
   C        8.46942        -4.57726        -4.69161
   O        8.39891        -4.85638        -5.86925
   H        4.28584         2.81174         2.06741
   H        4.55808         4.73606         1.58513
   H        4.45708         0.46720        -2.31822
   H        5.96307        -2.24440         3.16476
   H        5.59411        -3.79608        -0.44648
   H        7.23486        -9.70073        -0.72230
   H        8.54684       -11.29467        -0.54864
   H        9.17511       -13.90096         3.77570
   H       10.67434       -16.66119        -1.61637
   H       11.05527       -18.25544         0.40152
   H        9.21593       -12.37222        -2.08227
   H       10.19816       -15.03329        -3.21191
   H        9.79758       -11.35098        -3.60900
   H        9.90975       -13.67200        -8.13570
   H        9.18190        -7.47698        -7.95225
   H        9.17847        -8.36176       -10.39452
   H        9.72040        -9.29103        -3.84469
   H        9.00673        -7.04803        -5.80503
   H        9.54673        -7.31001        -2.79521
   H        7.36826        -1.74953        -5.40780
   H        7.19072        -0.20314        -3.29486
*
