# ORCA input file
# SCF done       -157.503356366583          0.000579331659
! CAM-B3LYP def2-SVP def2/J RIJCOSX Grid4 TightSCF
%maxcore 5000
%tddft
    Mode sTDDFT
    Ethresh 5.0
    maxcore 5000
end

%pal
  nprocs 6
  end
* xyz 0 1
   C        6.50740         3.70629        -0.46706
   O        6.69739         5.03148         0.00226
   C        5.65262         5.59946         0.68963
   C        5.19088         6.85343         0.26620
   C        5.78249         7.53216        -0.89578
   C        5.96455         6.87757        -2.11373
   C        6.50183         7.55610        -3.18225
   C        6.87883         8.89322        -3.05966
   N        7.43353         9.50939        -4.23049
   O        7.21183         8.98473        -5.30096
   O        8.10051        10.52045        -4.09823
   C        6.69855         9.57978        -1.85091
   C        7.07254        11.03233        -1.63921
   O        8.45398        11.21546        -1.48352
   C        6.14552         8.87265        -0.79327
   C        4.15470         7.46332         0.96848
   C        3.55543         6.84007         2.03801
   C        4.02004         5.60621         2.50221
   C        3.41047         4.95695         3.64015
   C        2.33937         5.40147         4.38805
   C        1.98138         4.53040         5.41598
   C        2.76362         3.39838         5.46269
   C        2.63072         2.33098         6.45039
   O        1.86760         2.43539         7.39401
   C        3.46183         1.13218         6.24170
   C        3.74204         0.49134         5.06415
   O        4.43405        -0.62973         5.28540
   C        4.61235        -0.73690         6.61293
   C        4.03359         0.30915         7.27083
   C        4.01561         0.59673         8.70172
   C        4.26927         1.88299         9.14982
   C        4.23581         2.17783        10.49591
   C        3.93525         1.18683        11.42204
   C        3.95319         1.52072        12.85319
   C        3.33854         2.68838        13.31270
   C        3.38280         3.00575        14.64918
   C        4.02835         2.16624        15.55876
   N        4.01872         2.58607        16.92809
   O        3.77749         3.75278        17.15879
   O        4.24690         1.76141        17.79707
   C        4.65876         0.99072        15.12437
   C        5.37907         0.02746        16.04429
   O        4.49496        -0.75648        16.80093
   C        4.61053         0.70160        13.76871
   C        3.64982        -0.11705        10.98542
   O        3.31719        -1.08958        11.91760
   C        2.04448        -0.93741        12.51159
   C        3.71059        -0.42781         9.62107
   O        3.50833        -1.64209         9.05161
   C        3.16706        -2.78371         9.80769
   S        3.97581         3.42755         4.22610
   C        5.10790         5.01333         1.83747
   O        5.60342         3.82540         2.33230
   C        6.91830         3.90434         2.86222
   H        5.66238         3.65870        -1.16211
   H        6.33492         2.99298         0.34045
   H        7.42534         3.45139        -0.99339
   H        5.67115         5.84741        -2.22745
   H        6.64727         7.06799        -4.13428
   H        6.61625        11.38328        -0.71009
   H        6.68780        11.64208        -2.46913
   H        8.85962        11.12295        -2.35927
   H        6.01146         9.37873         0.15099
   H        3.79041         8.42254         0.63369
   H        2.72868         7.32030         2.53396
   H        1.82535         6.32675         4.20325
   H        1.17568         4.69984         6.10746
   H        3.46926         0.70882         4.05036
   H        5.16395        -1.58038         6.97425
   H        4.50843         2.65436         8.43428
   H        4.47119         3.17261        10.84078
   H        2.81266         3.32655        12.61966
   H        2.90992         3.90081        15.02470
   H        6.06970         0.57907        16.69808
   H        5.95839        -0.67291        15.43765
   H        4.13314        -0.18958        17.49953
   H        5.09497        -0.19352        13.41132
   H        1.94077         0.02815        13.01488
   H        1.96038        -1.73740        13.24474
   H        1.24606        -1.03324        11.76624
   H        2.16986        -2.69923        10.24622
   H        3.89460        -2.98343        10.59604
   H        3.16904        -3.60337         9.08853
   H        7.63226         4.26630         2.11911
   H        7.17799         2.89214         3.16567
   H        6.94255         4.56411         3.73454
*
