# ORCA input file
# SCF done       -174.414085769184          0.000625895644
! CAM-B3LYP def2-SVP def2/J RIJCOSX Grid4 TightSCF
%maxcore 5000
%tddft
    Mode sTDDFT
    Ethresh 5.0
    maxcore 5000
end

%pal
  nprocs 6
  end
* xyz 0 1
   C        1.64799        -1.53185        -2.94838
   N        2.96918        -1.33021        -2.41389
   C        3.79483        -0.26612        -2.78129
   O        3.48877         0.57885        -3.58508
   C        5.09076        -0.43385        -2.04605
   C        6.16752         0.50076        -2.25053
   C        5.90803         1.87954        -2.25022
   N        4.75588         2.47113        -1.91561
   S        4.92389         4.04938        -2.06865
   N        6.45320         4.10257        -2.53010
   C        6.92661         2.84994        -2.59783
   C        8.21293         2.45071        -2.93424
   C        8.48955         1.08877        -2.92007
   N        9.73619         0.68330        -3.24912
   C        9.99249        -0.59353        -3.29496
   C       11.29715        -1.03483        -3.63863
   N       12.33663        -1.43412        -3.90507
   C        8.97527        -1.56912        -2.99787
   C        9.28072        -2.95139        -3.06411
   N        9.55348        -4.06320        -3.10763
   N        7.77044        -1.20328        -2.64079
   C        7.47941         0.10876        -2.58174
   C        4.96087        -1.57120        -1.31403
   C        3.62793        -2.12153        -1.53024
   C        3.45789        -3.23271        -0.75786
   C        2.31903        -4.07747        -0.65181
   C        2.22562        -5.17837         0.12222
   C        1.00002        -5.94243         0.13838
   C        0.85121        -7.13086         0.86880
   C       -0.38036        -7.75588         0.78559
   N       -1.38064        -7.27912         0.06218
   C       -1.15324        -6.13873        -0.60158
   C       -2.21318        -5.57450        -1.41211
   C       -3.49960        -5.96509        -1.63019
   C       -4.13051        -5.01937        -2.56085
   C       -5.39762        -5.42626        -2.82267
   C       -6.47585        -4.91332        -3.62727
   C       -6.90576        -3.57855        -3.61937
   N       -6.34188        -2.54756        -2.97581
   S       -7.23007        -1.23507        -3.22085
   N       -8.36863        -1.87032        -4.13926
   C       -8.11999        -3.17682        -4.30600
   C       -8.90835        -4.09225        -4.99128
   C       -8.47854        -5.41302        -5.02326
   N       -9.24324        -6.33653        -5.64938
   C       -8.82813        -7.57027        -5.69115
   C       -9.63959        -8.56094        -6.30323
   N      -10.26455        -9.38990        -6.78636
   C       -7.53567        -7.94102        -5.16514
   C       -7.04455        -9.25584        -5.36211
   N       -6.67686       -10.32653        -5.53644
   N       -6.79314        -7.07179        -4.53715
   C       -7.25237        -5.81788        -4.38037
   C       -5.60155        -6.66436        -1.99950
   O       -6.60235        -7.32134        -1.86882
   N       -4.40936        -6.91720        -1.31884
   C       -4.27568        -8.02800        -0.41012
   N       -3.21377        -4.08734        -2.90703
   C       -3.37316        -3.00226        -3.83474
   C       -2.00478        -4.34895        -2.23516
   O       -1.03053        -3.65355        -2.37174
   N       -0.01533        -5.46912        -0.58286
   C        4.73321        -3.38248         0.00697
   O        5.03757        -4.20168         0.83688
   N        5.58571        -2.33644        -0.38235
   C        6.88866        -2.14472         0.18972
   H        1.44175        -0.70193        -3.62310
   H        0.90562        -1.55109        -2.15010
   H        1.59231        -2.47267        -3.49737
   H        8.97707         3.15855        -3.20643
   H        1.45289        -3.81323        -1.24488
   H        3.04555        -5.51676         0.73637
   H        1.65664        -7.53413         1.45965
   H       -0.58712        -8.67835         1.31432
   H       -9.83538        -3.80485        -5.45707
   H       -4.56545        -8.94624        -0.92165
   H       -4.93604        -7.88729         0.44751
   H       -3.23740        -8.07605        -0.08319
   H       -4.21156        -2.37502        -3.52973
   H       -3.55534        -3.38364        -4.84175
   H       -2.44772        -2.42769        -3.82423
   H        7.00009        -2.87081         0.99461
   H        6.98409        -1.13283         0.58742
   H        7.66199        -2.31354        -0.56019
*
