# ORCA input file
# SCF done       -155.596439649028          0.000208717096
! CAM-B3LYP def2-SVP def2/J RIJCOSX Grid4 TightSCF
%maxcore 5000
%tddft
    Mode sTDDFT
    Ethresh 5.0
    maxcore 5000
end

%pal
  nprocs 6
  end
* xyz 0 1
   C       -0.41469         1.56664        -1.18912
   C       -0.10117         0.11812        -1.60223
   C        0.04545         0.04511        -3.12061
   C       -1.18270        -0.79011        -1.05447
   C       -2.49792        -0.89625        -1.43853
   C       -3.36753        -1.74033        -0.73311
   C       -4.77596        -1.86686        -1.12312
   C       -5.59195        -2.86087        -0.61549
   C       -6.94178        -3.02412        -0.96777
   C       -7.55733        -2.20296        -1.86795
   C       -6.78493        -1.17421        -2.42630
   N       -7.19888        -0.27259        -3.31675
   S       -5.97939         0.70809        -3.66465
   N       -4.86660         0.04448        -2.71080
   C       -5.39906        -0.99375        -2.06267
   C       -2.86124        -2.45571         0.35912
   C       -1.53614        -2.37273         0.73386
   C       -0.68978        -1.54293         0.01977
   C        0.72152        -1.25989         0.17705
   C        1.63284        -1.72069         1.10836
   C        2.94259        -1.28171         1.03106
   C        3.34973        -0.42059         0.02237
   C        4.80330         0.02130        -0.09454
   C        5.37031        -0.48242        -1.38480
   N        5.32281         0.17017        -2.52187
   S        6.07485        -0.70512        -3.67021
   N        6.48479        -1.95622        -2.71285
   C        6.04712        -1.72961        -1.49684
   C        6.18777        -2.67028        -0.34247
   C        4.92538        -3.51801        -0.21802
   C        4.53528        -4.03057         1.01458
   C        3.30143        -4.63908         1.18000
   C        2.44964        -4.73192         0.09085
   C        2.89412        -4.32290        -1.17447
   C        4.11943        -3.72197        -1.33300
   C        1.83483        -4.55418        -2.22229
   C        1.53984        -3.28107        -3.01148
   C        2.24248        -5.69386        -3.16454
   C        0.66397        -4.96937        -1.36485
   C       -0.63871        -5.16218        -1.74932
   C       -1.59478        -5.51029        -0.79144
   C       -2.99479        -5.65712        -1.19210
   C       -3.84675        -6.57026        -0.60906
   C       -5.18594        -6.72783        -1.00842
   C       -5.73707        -5.97482        -2.00829
   C       -4.91950        -5.01512        -2.62538
   N       -5.26316        -4.16853        -3.59922
   S       -3.99295        -3.25277        -3.95203
   N       -2.94164        -3.88776        -2.91938
   C       -3.54513        -4.85456        -2.22520
   C       -1.19338        -5.69856         0.53280
   C        0.12099        -5.51029         0.92311
   C        1.05488        -5.12528        -0.02587
   C        6.33071        -1.79990         0.86534
   N        7.05469        -2.08871         1.92066
   S        6.93145        -0.87545         2.99986
   N        5.93442         0.05921         2.11730
   C        5.67076        -0.54324         0.98205
   C        2.42457         0.06077        -0.90440
   C        1.11058        -0.34519        -0.81662
   H       -1.35526         1.88458        -1.63244
   H        0.37769         2.23169        -1.52447
   H       -0.49800         1.64203        -0.10695
   H       -0.82370         0.49392        -3.59567
   H        0.12408        -0.98470        -3.45434
   H        0.93271         0.58678        -3.44028
   H       -2.87248        -0.32862        -2.27365
   H       -5.18616        -3.57826         0.08003
   H       -7.49210        -3.83458        -0.51351
   H       -8.58782        -2.31962        -2.15863
   H       -3.51182        -3.08359         0.94708
   H       -1.17116        -2.94033         1.57611
   H        1.33029        -2.40091         1.88914
   H        3.64984        -1.61366         1.77478
   H        4.83791         1.11538        -0.07202
   H        7.06347        -3.31507        -0.46393
   H        5.19601        -3.92473         1.86322
   H        3.00186        -4.99909         2.15313
   H        4.44015        -3.38981        -2.30808
   H        2.38936        -3.01169        -3.63527
   H        1.34228        -2.46724        -2.31891
   H        0.67074        -3.42607        -3.64866
   H        3.14458        -5.42600        -3.70986
   H        1.44584        -5.89156        -3.87785
   H        2.43597        -6.60209        -2.59756
   H       -0.93715        -5.03559        -2.77699
   H       -3.46866        -7.21553         0.17007
   H       -5.78609        -7.47452        -0.50916
   H       -6.75972        -6.09172        -2.32720
   H       -1.93141        -5.95785         1.27814
   H        0.40552        -5.64177         1.95724
   H        2.75286         0.74565        -1.67319
*
