# ORCA input file
# SCF done       -159.012149799499          0.000596907333
! CAM-B3LYP def2-SVP def2/J RIJCOSX Grid4 TightSCF
%maxcore 5000
%tddft
    Mode sTDDFT
    Ethresh 5.0
    maxcore 5000
end

%pal
  nprocs 6
  end
* xyz 0 1
   C        4.93735        -1.08819         3.23400
  Ge        5.81375        -1.32411         1.46965
   C        5.68024         0.28332         0.31447
   C        7.64215        -2.05530         1.60127
   C        8.89303        -1.70173         2.10947
   C        9.86214        -2.66349         1.92065
   C       11.24787        -2.64282         2.32666
   C       12.13470        -3.64243         1.87992
   C       13.45364        -3.65468         2.25532
   C       13.95037        -2.66102         3.10402
   N       15.25603        -2.64719         3.50001
   C       15.85191        -1.72290         4.33938
   O       17.02628        -1.81874         4.62074
   C       14.92915        -0.68190         4.81058
   C       15.44090         0.30875         5.67751
   N       15.82422         1.12745         6.38183
   C       13.62212        -0.65965         4.43557
   C       13.08218        -1.64937         3.56629
   C       11.74253        -1.65624         3.16906
   S        9.20879        -4.05107         1.08434
   C        7.65638        -3.31342         1.01675
   C        6.44527        -3.81483         0.47758
   S        6.12429        -5.32975        -0.27232
   C        4.45417        -4.88321        -0.46829
   C        3.51933        -5.79196        -1.04430
   N        2.25130        -5.41818        -1.16316
   N        1.32113        -6.19640        -1.62646
   C        1.54650        -7.44416        -2.01872
   C        0.44653        -8.23836        -2.45614
   C       -0.87626        -7.84845        -2.56791
   C       -1.71312        -8.87582        -2.98559
   C       -1.01366       -10.06299        -3.18934
   S        0.67203        -9.91023        -2.88136
   C       -1.75821       -11.20144        -3.58730
   S       -1.21932       -12.80691        -3.88722
   C       -2.85251       -13.31943        -4.23951
   C       -3.12115       -14.69524        -4.58559
   C       -4.42275       -15.12132        -4.91797
   C       -4.68654       -16.42873        -5.24100
   C       -3.65839       -17.37579        -5.24783
   N       -3.89127       -18.68288        -5.56354
   C       -2.95313       -19.69894        -5.60308
   O       -3.28356       -20.82564        -5.90139
   C       -1.59565       -19.25623        -5.25739
   C       -0.56765       -20.22496        -5.26647
   N        0.28540       -20.98991        -5.26837
   C       -1.32340       -17.96314        -4.93708
   C       -2.34650       -16.97308        -4.92079
   C       -2.10174       -15.63779        -4.59536
   C       -3.73363       -12.26607        -4.12170
   C       -3.12861       -11.06361        -3.75204
  Ge       -3.61968        -9.19167        -3.36649
   C       -4.79497        -8.99082        -1.78060
   C       -4.28822        -8.21593        -4.95978
   C        2.87484        -7.95618        -1.97023
   N        3.34399        -9.14548        -2.32787
   S        4.93363        -9.17388        -2.05904
   N        5.09249        -7.67924        -1.47464
   C        3.89941        -7.09712        -1.47006
   C        4.19444        -3.61717         0.02584
   C        5.31703        -3.00270         0.56636
   H        5.38560        -0.25791         3.77103
   H        5.04234        -1.98823         3.83150
   H        3.88027        -0.88183         3.09856
   H        4.63721         0.51758         0.12578
   H        6.17565         0.10994        -0.63547
   H        6.14382         1.13651         0.80011
   H        9.08127        -0.75962         2.59345
   H       11.76124        -4.41449         1.22397
   H       14.11619        -4.43001         1.90006
   H       15.87098        -3.37913         3.16184
   H       12.97004         0.12183         4.80165
   H       11.09409        -0.87971         3.54274
   H       -1.18504        -6.84407        -2.34067
   H       -5.23057       -14.40756        -4.92143
   H       -5.69100       -16.73605        -5.49284
   H       -4.83749       -18.96233        -5.79733
   H       -0.31313       -17.66879        -4.68736
   H       -1.09355       -15.34225        -4.34511
   H       -4.79230       -12.35599        -4.29022
   H       -4.39884        -9.55572        -0.94278
   H       -5.79529        -9.34956        -2.00268
   H       -4.85790        -7.94505        -1.49641
   H       -3.61723        -8.36136        -5.80044
   H       -4.35300        -7.15376        -4.74564
   H       -5.27556        -8.57410        -5.23484
   H        3.20839        -3.19098        -0.01696
*
