# ORCA input file
# SCF done       -150.035723551014          0.000424750401
! CAM-B3LYP def2-SVP def2/J RIJCOSX Grid4 TightSCF
%maxcore 5000
%tddft
    Mode sTDDFT
    Ethresh 5.0
    maxcore 5000
end

%pal
  nprocs 6
  end
* xyz 0 1
   C        5.07510        -3.15802         3.46712
   C        5.88499        -2.37134         2.48503
   C        6.96311        -2.95548         1.82720
   C        7.74302        -2.23190         0.93655
   C        7.42563        -0.90770         0.71150
   C        6.33235        -0.30357         1.35816
   C        5.56445        -1.03411         2.24452
   C        6.21795         1.07992         0.89088
   C        5.10340         1.87413         1.04010
   C        4.90692         3.06381         0.32145
   N        4.71521         4.04126        -0.25267
   C        4.02263         1.57919         1.88918
   N        3.13462         1.43214         2.60432
   C        7.38128         1.36932         0.10718
   C        7.96824         2.53484        -0.32179
   C        7.76505         3.87691         0.02185
   C        7.19044         4.36424         1.17409
   O        6.82069         3.55354         2.18790
   C        6.46611         4.20523         3.39340
   C        5.64393         5.44928         3.08765
   O        6.42187         6.36279         2.34111
   C        7.07514         5.80277         1.28725
   C        7.65630         6.52175         0.28942
   C        7.70879         7.93377         0.11765
   C        7.19945         8.90536         0.99949
   N        7.30424        10.18940         0.75839
   C        7.92208        10.57985        -0.37270
   C        7.98826        11.99202        -0.53483
   C        8.47034        12.71405        -1.58318
   O        8.96700        12.15034        -2.71768
   C        9.07928        13.03558        -3.81619
   C        9.69059        14.35762        -3.37354
   O        8.86042        14.97522        -2.41032
   C        8.42154        14.15596        -1.42669
   C        7.84440        14.63032        -0.27855
   C        7.76411        15.98081         0.12628
   C        8.54472        17.04376        -0.20239
   S        9.96767        17.07971        -1.21963
   C       10.26716        18.80051        -0.84164
   O       11.18684        19.43943        -1.26934
   N        9.28938        19.25283        -0.00291
   C        9.28821        20.62525         0.45270
   C        8.31505        18.35348         0.40266
   O        7.41428        18.64702         1.15807
  Si        7.25405        13.15003         0.76244
   C        5.35959        13.03523         0.85197
   C        8.10563        13.08919         2.45773
   C        8.43964         9.60796        -1.25005
   N        8.33383         8.32417        -1.00929
  Si        8.34461         5.35902        -1.02656
   C       10.23676         5.39803        -1.19370
   C        7.39150         5.46257        -2.66344
   C        8.09090         0.08787        -0.15143
   O        9.03743        -0.08096        -0.88985
   H        5.16209        -4.22544         3.28101
   H        4.02706        -2.87135         3.42035
   H        5.42963        -2.96002         4.47932
   H        7.19515        -3.99349         2.01670
   H        8.57906        -2.68409         0.42540
   H        4.72722        -0.58997         2.76006
   H        8.77169         2.36752        -1.03426
   H        7.37667         4.48584         3.93955
   H        5.89569         3.48086         3.97765
   H        5.35035         5.96767         4.00123
   H        4.74905         5.16814         2.51631
   H        6.70172         8.61920         1.91451
   H        8.08435        13.21514        -4.24616
   H        9.70904        12.53203        -4.55118
   H        9.77060        15.06011        -4.20378
   H       10.68588        14.18502        -2.94337
   H        7.00768        16.20834         0.86977
   H       10.24351        20.85992         0.92207
   H        8.47561        20.72466         1.17071
   H        9.13139        21.30096        -0.38867
   H        4.90434        13.13569        -0.12840
   H        4.95453        13.81245         1.49147
   H        5.06807        12.07459         1.26178
   H        9.18033        13.21624         2.37150
   H        7.91630        12.13415         2.93507
   H        7.72741        13.87187         3.10690
   H        8.94833         9.89437        -2.15909
   H       10.73147         5.27196        -0.23551
   H       10.54978         6.34795        -1.61217
   H       10.58115         4.60979        -1.85472
   H        6.32915         5.30794        -2.49817
   H        7.73608         4.70999        -3.36534
   H        7.52777         6.43762        -3.11829
*
