# ORCA input file
# SCF done       -125.940975157980          0.000299317028
! CAM-B3LYP def2-SVP def2/J RIJCOSX Grid4 TightSCF
%maxcore 5000
%tddft
    Mode sTDDFT
    Ethresh 5.0
    maxcore 5000
end

%pal
  nprocs 6
  end
* xyz 0 1
   C        5.83577         1.74397        -1.41762
   O        5.51393         0.55879        -0.72144
   C        4.48688        -0.18586        -1.18120
   C        3.65754         0.05478        -2.28118
   C        2.69320        -0.91974        -2.46140
   C        1.66517        -0.97426        -3.47322
   C        0.73029        -2.02416        -3.52596
   F        0.78968        -3.01686        -2.62701
   C       -0.27126        -2.07839        -4.48374
   F       -1.12961        -3.10360        -4.47566
   C       -0.40118        -1.09356        -5.44582
   C        0.50741        -0.05164        -5.41907
   F        0.41617         0.92100        -6.33386
   C        1.51242         0.01161        -4.46533
   F        2.34572         1.06299        -4.52236
   S        2.82899        -2.16273        -1.24784
   C        4.16329        -1.36037        -0.50598
   C        4.82054        -1.82276         0.66092
   S        6.08449        -0.89166         1.40287
   C        6.28033        -2.04472         2.69067
   C        7.21266        -1.83552         3.74738
   C        7.47982        -2.66183         4.81567
   C        8.44804        -2.13554         5.69121
   O        8.86507        -2.67270         6.85292
   C        8.36075        -3.94248         7.20507
   C        8.92511        -0.89753         5.28021
   C        9.92044        -0.08022         5.94077
   C       11.06320        -0.64230         6.52484
   F       11.30153        -1.95241         6.39957
   C       11.99159         0.14632         7.19064
   F       13.07073        -0.42448         7.74151
   C       11.83433         1.51745         7.28258
   C       10.72620         2.09079         6.68423
   F       10.55833         3.41771         6.75267
   C        9.78706         1.31196         6.02553
   F        8.71562         1.90549         5.47805
   S        8.14764        -0.37995         3.81779
   C        5.40619        -3.10010         2.51735
   F        5.32964        -4.14568         3.35253
   C        4.58978        -2.97514         1.38599
   F        3.66735        -3.88131         1.03781
   H        4.99769         2.44638        -1.41317
   H        6.12806         1.52904        -2.44947
   H        6.67783         2.17775        -0.88227
   H        3.76350         0.91445        -2.91223
   H       -1.18013        -1.13613        -6.18763
   H        6.99065        -3.60665         4.95574
   H        8.84257        -4.19615         8.14717
   H        8.61590        -4.69356         6.45262
   H        7.27582        -3.91533         7.34402
   H       12.55970         2.12372         7.79836
*
