# ORCA input file
# SCF done       -179.955744041631          0.000362874155
! CAM-B3LYP def2-SVP def2/J RIJCOSX Grid4 TightSCF
%maxcore 5000
%tddft
    Mode sTDDFT
    Ethresh 5.0
    maxcore 5000
end

%pal
  nprocs 6
  end
* xyz 0 1
   C       -1.26352         7.30684         1.43200
   C       -1.25456         5.82151         1.39258
   C       -0.59081         4.95525         2.20502
   C       -0.81656         3.60123         1.88727
   C       -1.65333         3.42899         0.81981
   C       -2.10755         2.18962         0.22267
   C       -2.49186         1.09508         1.01986
   C       -2.54825         1.03486         2.43719
   C       -2.90559        -0.19103         2.91006
   C       -3.05933        -0.59488         4.28764
   N       -3.99646        -1.43925         4.63958
   O       -3.92603        -1.60584         5.97636
   C       -2.93709        -0.85147         6.48268
   C       -2.69486        -0.93873         7.88554
   C       -3.36011        -1.79151         8.72685
   C       -2.91666        -1.71583        10.06473
   C       -3.36334        -2.46634        11.17379
   C       -4.37229        -3.49992        11.06942
   C       -5.37654        -3.78517        11.95200
   C       -6.15740        -4.89450        11.57298
   C       -5.74991        -5.47456        10.41168
   C       -6.32104        -6.65625         9.71478
   S       -4.38400        -4.63892         9.74845
   C       -2.75767        -2.17662        12.39112
   S       -3.11229        -2.97331        13.90070
   C       -1.91019        -2.01014        14.72586
   C       -1.66402        -2.16651        16.13870
   C       -2.36007        -3.09052        16.93096
   N       -2.11788        -3.22913        18.21903
   C       -1.18063        -2.45404        18.74841
   C       -0.48686        -1.53213        17.97375
   N       -0.72307        -1.38730        16.68378
   C       -1.28132        -1.13916        13.88961
   C       -1.72416        -1.21721        12.54539
   C       -1.26674        -0.48352        11.43390
   C       -0.17715         0.46652        11.51301
   C       -0.04185         1.65271        10.84593
   C        1.18031         2.30301        11.10304
   C        1.99450         1.61663        11.95016
   C        3.35039         1.98363        12.43555
   S        1.24703         0.14169        12.46731
   C       -1.89754        -0.74223        10.21724
   S       -1.50544         0.03273         8.70694
   C       -2.31613        -0.17171         5.43868
   C       -1.14361         0.70278         5.53869
   O       -0.83907         1.28654         6.54686
   O       -0.38104         0.81520         4.43762
   S       -3.24198        -1.33461         1.63618
   C       -2.87094        -0.13180         0.42634
   C       -2.89893        -0.33652        -0.95137
   C       -3.24948        -1.62843        -1.50340
   C       -4.20500        -2.50070        -1.06055
   C       -4.25137        -3.70032        -1.79686
   C       -3.32653        -3.76230        -2.79315
   C       -3.07718        -4.86243        -3.76051
   S       -2.37847        -2.31312        -2.84990
   C       -2.55122         0.76903        -1.75265
   C       -2.52949         0.85283        -3.16748
   C       -2.12433         2.06509        -3.63666
   C       -1.99692         2.44606        -5.02272
   C       -1.55979         3.71763        -5.41974
   N       -1.44350         4.05145        -6.68944
   C       -1.75866         3.13158        -7.59140
   C       -2.19393         1.86822        -7.20943
   N       -2.31270         1.52581        -5.94065
   S       -1.75539         3.18845        -2.35170
   C       -2.17138         1.99635        -1.15318
   S       -2.17272         4.97072         0.19309
   H       -0.64659         7.65984         2.25478
   H       -2.27765         7.68260         1.56535
   H       -0.87685         7.71815         0.49986
   H        0.04431         5.27133         3.01327
   H       -0.33703         2.79071         2.40670
   H       -2.37862         1.89068         3.06580
   H       -4.13857        -2.44430         8.37774
   H       -5.57605        -3.19568        12.82835
   H       -6.99459        -5.25060        12.14664
   H       -7.17481        -7.03715        10.27009
   H       -5.57719        -7.44797         9.62677
   H       -6.64462        -6.39112         8.70849
   H       -3.12606        -3.72785        16.50897
   H       -0.99135        -2.58065        19.80481
   H        0.27843        -0.89197        18.39154
   H       -0.52857        -0.46356        14.24944
   H       -0.80500         2.06802        10.21392
   H        1.44718         3.24878        10.66635
   H        3.64714         2.94233        12.01682
   H        4.08099         1.23026        12.14117
   H        3.36491         2.05342        13.52305
   H       -0.72418         0.30769         3.68608
   H       -4.88372        -2.27734        -0.25743
   H       -4.94967        -4.49209        -1.59143
   H       -3.77957        -5.67437        -3.58856
   H       -2.06278        -5.24654        -3.65372
   H       -3.19162        -4.50779        -4.78445
   H       -2.80875         0.05924        -3.83437
   H       -1.30006         4.47554        -4.69235
   H       -1.65800         3.41958        -8.62808
   H       -2.45497         1.10805        -7.93329
*
