# ORCA input file
# SCF done       -146.362656177796          0.000387103287
! CAM-B3LYP def2-SVP def2/J RIJCOSX Grid4 TightSCF
%maxcore 5000
%tddft
    Mode sTDDFT
    Ethresh 5.0
    maxcore 5000
end

%pal
  nprocs 6
  end
* xyz 0 1
   C        4.99247         5.62340         0.39764
   O        3.93333         4.72596         0.16865
   C        4.03023         3.85103        -0.85841
   C        5.18141         3.64655        -1.60960
   C        5.25426         2.66896        -2.59223
   C        6.48451         2.53172        -3.38769
   C        6.40578         2.46901        -4.78873
   C        7.52356         2.37434        -5.58554
   C        8.76053         2.33003        -4.95127
   N       10.03389         2.23139        -5.43639
   C       10.80411         2.22361        -4.38488
   C       12.24155         2.12275        -4.44414
   C       12.82896         2.12695        -5.71018
   C       14.19750         2.02042        -5.87594
   O       14.81380         2.02475        -7.08080
   C       14.03184         2.16096        -8.24507
   C       15.02371         1.89077        -4.72456
   C       16.43470         1.76083        -4.92513
   C       17.49004         1.55638        -4.09149
   C       18.83899         1.44678        -4.71235
   O       19.09919         1.54987        -5.89029
   C       19.78764         1.18347        -3.60795
   C       21.15555         0.98643        -3.64201
   C       21.81213         0.74935        -2.44144
   C       21.11570         0.71175        -1.24081
   C       19.74192         0.91011        -1.20451
   C       19.08584         1.14538        -2.39896
   C       17.64036         1.38367        -2.63400
   O       16.79701         1.42147        -1.75849
   C       14.42184         1.89346        -3.46256
   C       13.05185         2.01051        -3.29459
   O       12.43373         2.01579        -2.09221
   C       13.22010         1.87629        -0.92940
   O       10.14503         2.31470        -3.20230
   C        8.83724         2.38572        -3.54165
   C        7.71670         2.49601        -2.74389
   C        4.15563         1.81332        -2.79867
   O        4.31516         0.82540        -3.72485
   C        3.27050        -0.09694        -3.91191
   C        3.01129         2.00285        -2.04568
   C        2.90622         3.04285        -1.11736
   C        1.64135         3.23719        -0.45062
   C        1.02494         4.40715        -0.17772
   C       -0.24956         4.45571         0.57810
   O       -0.87036         3.51190         1.01511
   C       -0.59844         5.89117         0.68961
   C       -1.66450         6.49042         1.33544
   C       -1.76666         7.87426         1.28679
   C       -0.82703         8.63636         0.60543
   C        0.24151         8.03691        -0.04793
   C        0.35021         6.65938         0.00374
   C        1.37906         5.77823        -0.60615
   O        2.26330         6.12726        -1.35604
   H        4.66492         6.25780         1.21991
   H        5.18238         6.24301        -0.48295
   H        5.90924         5.09967         0.68867
   H        6.04516         4.27546        -1.46520
   H        5.43038         2.51219        -5.24645
   H        7.45521         2.33541        -6.66031
   H       12.15673         2.21483        -6.54694
   H       14.73980         2.14788        -9.07215
   H       13.48279         3.10698        -8.24973
   H       13.32803         1.33089        -8.35420
   H       16.72858         1.82471        -5.97035
   H       21.68799         1.01708        -4.58021
   H       22.88059         0.59124        -2.43999
   H       21.65205         0.52504        -0.32206
   H       19.19212         0.88218        -0.27611
   H       15.06512         1.79656        -2.60537
   H       12.51491         1.89194        -0.10006
   H       13.92911         2.70188        -0.82172
   H       13.76900         0.93064        -0.92553
   H        7.79407         2.52656        -1.66886
   H        3.63379        -0.80004        -4.65984
   H        2.36317         0.38971        -4.28494
   H        3.03988        -0.63857        -2.98889
   H        2.14420         1.37855        -2.19401
   H        1.09790         2.33798        -0.17244
   H       -2.39217         5.88943         1.85907
   H       -2.59006         8.36645         1.78315
   H       -0.93118         9.71129         0.58318
   H        0.97506         8.62155        -0.58202
*
