# ORCA input file
# SCF done       -110.687634906930          0.000923512529
! CAM-B3LYP def2-SVP def2/J RIJCOSX Grid4 TightSCF
%maxcore 5000
%tddft
    Mode sTDDFT
    Ethresh 5.0
    maxcore 5000
end

%pal
  nprocs 6
  end
* xyz 0 1
   N        4.34198         7.32076         6.12875
   C        5.36091         6.92296         5.78378
   C        6.59991         6.43864         5.35750
   S        6.72804         5.26636         4.08271
   C        8.46277         5.24729         4.20197
   C        9.24776         4.45698         3.37844
   C        9.92260         3.76927         2.63917
   C       10.71345         3.01456         1.78855
   C       10.25570         2.21486         0.76254
   C       11.25675         1.57722         0.01785
   C       12.54009         1.85416         0.42977
   C       13.79958         1.34224        -0.04251
   N       14.76884         1.24398         0.83578
   O       15.85162         0.72618         0.21315
   C       15.56842         0.49063        -1.07830
   C       16.60344        -0.04012        -1.89517
   C       17.88930        -0.25717        -1.42251
   C       18.79039        -0.76432        -2.35331
   C       18.25480        -0.97808        -3.60796
   C       18.95174        -1.45207        -4.71214
   C       19.53837        -1.84054        -5.70120
   C       20.22002        -2.28374        -6.82896
   S       20.33562        -3.97026        -7.23260
   C       21.26307        -3.62071        -8.65872
   C       21.71589        -4.63665        -9.50425
   N       22.08227        -5.47483       -10.19569
   C       21.46176        -2.26395        -8.79897
   F       22.14068        -1.72014        -9.80566
   C       20.87346        -1.51154        -7.76621
   F       20.94155        -0.18049        -7.69788
  Se       16.43543        -0.52232        -3.69941
   C       14.24825         0.88582        -1.32265
   C       13.61189         0.91362        -2.62749
   O       14.06161         0.31073        -3.58033
   O       12.51500         1.66104        -2.77593
  Se       12.59403         2.98470         1.91749
   C        8.89415         6.11323         5.18887
   F       10.18212         6.29295         5.48800
   C        7.84545         6.78457         5.83960
   F        8.03498         7.66473         6.81846
   H        9.20623         2.09540         0.55495
   H       11.02109         0.88818        -0.77711
   H       18.15760        -0.03647        -0.40313
   H       19.82098        -0.97350        -2.12176
   H       12.26462         2.13937        -1.97048
*
