# ORCA input file
# SCF done       -189.873370657620          0.000402777598
! CAM-B3LYP def2-SVP def2/J RIJCOSX Grid4 TightSCF
%maxcore 5000
%tddft
    Mode sTDDFT
    Ethresh 5.0
    maxcore 5000
end

%pal
  nprocs 6
  end
* xyz 0 1
   C        2.06448         2.28701        -1.90930
   O        1.83888         1.89081        -0.57555
   C        2.82941         2.07783         0.33755
   C        4.09973         2.54160         0.03154
   C        5.07126         2.71098         1.01099
   C        6.38766         3.21015         0.63439
   S        6.48275         4.64425        -0.35735
   C        8.17715         4.59429        -0.35109
   C        8.65279         3.52985         0.37256
   N       10.05208         3.31410         0.50550
   O       10.78490         4.02978        -0.15081
   O       10.43874         2.44433         1.25839
   C        7.62521         2.71446         0.93997
   C        7.86531         1.45382         1.69115
   C        4.76079         2.43366         2.35429
   O        5.72984         2.68338         3.27245
   C        5.45745         2.43629         4.63113
   C        3.49221         1.96711         2.66026
   C        2.51973         1.79460         1.67937
   C        1.17523         1.34239         2.05178
   C        0.52056         1.81188         3.14236
   C       -0.73001         1.21545         3.62263
   C       -0.87428        -0.16924         3.64319
   C       -2.06352        -0.77159         4.01525
   O       -2.29163        -2.10881         3.97637
   C       -1.21582        -2.98077         3.71485
   C       -3.13812         0.04617         4.41278
   C       -4.40891        -0.53999         4.79882
   S       -5.89147         0.13920         4.23349
   C       -6.80804        -1.10639         4.98811
   C       -6.03817        -2.01957         5.63580
   C       -6.56548        -3.19609         6.37974
   C       -4.65625        -1.67998         5.53275
   N       -3.62813        -2.40115         6.20843
   O       -2.71119        -1.76002         6.67904
   O       -3.74667        -3.60405         6.29841
   C       -2.99301         1.42886         4.40075
   C       -1.80332         2.03137         4.02210
   O       -1.60234         3.37571         3.98146
   C       -2.69189         4.23080         4.24406
   C        1.01796         2.97407         3.89764
   C        1.35145         4.17404         3.26735
   F        1.25523         4.28342         1.94113
   C        1.76535         5.28611         3.98967
   F        2.07743         6.41938         3.35621
   C        1.85100         5.22244         5.37744
   F        2.24937         6.28588         6.07636
   C        1.51924         4.03886         6.02954
   F        1.60583         3.96447         7.35960
   C        1.10561         2.93740         5.29001
   F        0.82211         1.80300         5.93703
   C        0.56256         0.34592         1.15701
   C       -0.71805         0.51654         0.62808
   F       -1.43606         1.59489         0.94626
   C       -1.27144        -0.40389        -0.25276
   F       -2.50018        -0.21197        -0.73857
   C       -0.54357        -1.52693        -0.63552
   F       -1.07028        -2.41484        -1.47924
   C        0.73916        -1.71424        -0.13027
   F        1.44690        -2.78906        -0.48659
   C        1.27554        -0.78196         0.74910
   F        2.50148        -0.99991         1.24071
   H        2.85509         1.69160        -2.37626
   H        2.31526         3.34920        -1.97288
   H        1.12444         2.10702        -2.42818
   H        4.36844         2.77382        -0.98653
   H        8.76442         5.33316        -0.85981
   H        8.64080         0.86649         1.20428
   H        6.95146         0.87016         1.75444
   H        8.21310         1.67989         2.69767
   H        6.36662         2.70862         5.16418
   H        5.23510         1.38058         4.81291
   H        4.62782         3.05224         4.99481
   H        3.23981         1.70624         3.67470
   H       -0.02310        -0.77410         3.37830
   H       -0.40630        -2.83583         4.43477
   H       -0.83571        -2.85487         2.69545
   H       -1.62462        -3.98333         3.82918
   H       -7.87645        -1.09256         4.90745
   H       -7.65184        -3.18368         6.38297
   H       -6.20589        -3.19212         7.40749
   H       -6.21683        -4.11755         5.91720
   H       -3.83703         2.02450         4.70939
   H       -2.31209         5.23958         4.09059
   H       -3.04208         4.12902         5.27565
   H       -3.51870         4.04636         3.55283
*
