# ORCA input file
# SCF done       -170.552054413721          0.000605806013
! CAM-B3LYP def2-SVP def2/J RIJCOSX Grid4 TightSCF
%maxcore 5000
%tddft
    Mode sTDDFT
    Ethresh 5.0
    maxcore 5000
end

%pal
  nprocs 6
  end
* xyz 0 1
   C        5.77783        -0.48554       -10.79412
   N        6.74547        -0.78177        -9.75165
   C        7.11068        -2.11185        -9.62882
   O        6.63237        -2.94705       -10.36976
   C        8.08489        -2.43475        -8.57407
   C        8.50224        -3.73865        -8.40893
   C        9.44588        -4.05331        -7.42963
   C        9.94403        -3.07872        -6.60344
   C        9.51131        -1.74190        -6.71181
   C        9.98929        -0.70114        -5.86737
   C       10.84387        -0.99380        -4.71558
   C       10.43768        -1.88224        -3.72459
   C       11.22824        -2.11143        -2.52829
   C       12.43712        -1.46184        -2.29680
   C       13.15322        -1.69408        -1.05848
   C       14.49048        -1.86529        -0.82605
   O       14.72310        -2.11158         0.47320
   C       13.53639        -2.11205         1.09904
   C       12.52393        -1.86747         0.21986
   C       11.07612        -1.69123         0.47665
   O       10.48231        -0.68228         0.14277
   C       10.41284        -2.80285         1.13321
   C       10.88892        -4.04091         1.50393
   C        9.89795        -4.88153         2.00355
   C        8.64173        -4.30189         2.02936
   C        7.40863        -4.93260         2.39876
   C        7.27495        -6.32818         2.33964
   C        5.99581        -6.99439         2.52701
   C        4.81735        -6.29096         2.77269
   C        3.52091        -6.96077         2.77629
   C        2.41443        -6.36989         2.13970
   C        1.19427        -6.99864         2.09992
   C        1.03116        -8.25175         2.69729
   N       -0.16837        -8.90124         2.67576
   C       -0.44009       -10.14630         3.21633
   O       -1.55141       -10.62000         3.13221
   C        0.72286       -10.77008         3.86165
   C        0.54660       -12.04704         4.43951
   N        0.43469       -13.08338         4.91527
   C        1.93354       -10.15272         3.90734
   C        2.13337        -8.86821         3.32698
   C        3.36594        -8.21010         3.35366
   C        4.96447        -4.89878         2.97242
   C        3.98342        -4.02067         3.39856
   S        4.56952        -2.43760         3.58002
   C        6.13430        -2.87911         3.08704
   C        6.23878        -4.22409         2.79056
   N        6.10541        -8.32425         2.36201
   S        7.62184        -8.68549         2.02075
   N        8.24149        -7.21278         2.04825
   S        8.70919        -2.67654         1.41485
   C       12.86648        -0.56652        -3.30051
   C       14.01529         0.20451        -3.30086
   S       14.15268         1.15368        -4.70269
   C       12.68890         0.57414        -5.33974
   C       12.07338        -0.33342        -4.49508
   N       10.63714        -3.00578        -1.71500
   S        9.24491        -3.45032        -2.35746
   N        9.29540        -2.59498        -3.70181
   C        9.59663         0.60287        -6.10444
   C        8.70674         0.91553        -7.12759
   C        8.18924        -0.07855        -7.93431
   C        8.59017        -1.41592        -7.73992
   C        7.22650         0.27113        -8.98919
   O        6.86136         1.41161        -9.19521
   H        4.87129        -1.06623       -10.62473
   H        6.18834        -0.75879       -11.76628
   H        5.56091         0.57913       -10.76066
   H        8.09763        -4.49973        -9.05903
   H        9.78706        -5.07280        -7.32983
   H       10.68827        -3.33031        -5.86405
   H       15.33379        -1.87533        -1.48741
   H       13.53590        -2.25966         2.16100
   H       11.91965        -4.32598         1.39925
   H       10.07203        -5.88613         2.34017
   H        2.53966        -5.42099         1.64104
   H        0.35686        -6.53642         1.59798
   H       -0.95430        -8.45035         2.22037
   H        2.77097       -10.63929         4.38831
   H        4.20414        -8.68728         3.83512
   H        2.97068        -4.24863         3.66091
   H        6.90406        -2.13637         3.08455
   H       14.76355         0.26389        -2.53833
   H       12.34867         0.91037        -6.29783
   H        9.95567         1.38799        -5.45558
   H        8.39254         1.93500        -7.29390
*
