# ORCA input file
# SCF done       -224.274286764596          0.000493914875
! CAM-B3LYP def2-SVP def2/J RIJCOSX Grid4 TightSCF
%maxcore 5000
%tddft
    Mode sTDDFT
    Ethresh 5.0
    maxcore 5000
end

%pal
  nprocs 6
  end
* xyz 0 1
   C        0.65844         1.23724         1.25055
   C        0.23893         0.42307         0.07127
   N       -0.22047         1.06243        -0.97161
   C       -0.59532         0.34941        -2.05671
   C       -1.10828         1.01111        -3.18722
   C       -1.48727         0.27857        -4.27920
   C       -1.36377        -1.11678        -4.28958
   C       -0.85535        -1.80489        -3.21034
   C       -0.72416        -3.26515        -3.20873
   C        0.42087        -3.87631        -2.70014
   C        0.51240        -5.24920        -2.63092
   C       -0.53739        -6.05518        -3.06862
   C       -0.46726        -7.51904        -2.95067
   C       -0.07054        -8.12265        -1.80581
   C        0.14125        -7.37239        -0.55574
   C       -0.77886        -6.41935        -0.12283
   C       -0.56495        -5.71898         1.04830
   C        0.56590        -5.96335         1.81042
   C        1.47483        -6.92454         1.40122
   C        1.26269        -7.62842         0.23068
   C        0.17017        -9.56846        -1.72569
   C        0.90778       -10.23534        -2.70626
   C        1.12074       -11.59120        -2.62191
   C        0.59693       -12.33947        -1.55994
   C        0.79717       -13.76751        -1.51416
   S        1.86860       -14.51523        -2.68193
   C        1.59697       -16.13623        -2.07681
   C        2.26879       -17.24374        -2.71137
   C        1.90880       -18.56873        -2.44321
   C        2.55219       -19.60775        -3.07861
   C        3.56973       -19.37227        -4.00514
   C        4.24848       -20.49694        -4.65625
   C        4.60266       -20.48490        -5.96375
   C        4.15826       -19.44216        -6.90064
   C        5.05997       -18.89297        -7.81047
   C        4.65279       -17.91721        -8.70058
   C        3.33643       -17.48674        -8.70711
   C        2.42678       -18.04425        -7.82307
   C        2.83155       -19.01502        -6.92745
   C        5.44223       -21.54533        -6.53922
   C        5.11242       -22.12342        -7.76365
   C        5.85946       -23.16664        -8.27166
   C        6.96081       -23.65678        -7.57385
   C        7.69938       -24.82297        -8.06887
   C        8.07022       -24.95089        -9.38848
   C        8.76701       -26.07575        -9.84891
   C        9.09608       -27.09678        -8.99924
   C        8.72301       -27.01562        -7.64514
   N        9.03128       -28.02405        -6.79993
   C        8.65782       -27.93144        -5.55120
   C        9.01423       -29.05837        -4.63868
   C        7.92721       -26.79818        -5.08269
   C        7.46782       -26.68834        -3.66591
   N        7.62916       -25.81070        -5.88355
   C        8.02134       -25.87594        -7.17269
   C        7.32790       -23.03650        -6.38121
   C        6.58315       -21.99434        -5.87472
   C        4.51904       -21.65964        -3.79023
   C        5.05839       -21.47672        -2.51877
   C        5.31783       -22.56253        -1.70372
   C        5.03084       -23.84510        -2.13997
   C        4.47281       -24.03549        -3.39372
   C        4.21621       -22.95274        -4.21204
   C        3.94700       -18.04963        -4.25137
   C        3.30550       -17.00830        -3.62320
   C        0.71460       -16.07074        -1.02642
   C        0.27881       -14.74865        -0.70341
   C       -0.63651       -14.84354         0.44139
   O       -1.23840       -13.99612         1.06032
   N       -0.70457       -16.19772         0.73733
   C       -1.50916       -16.72867         1.80828
   C        0.06748       -17.00007        -0.09083
   O        0.12185       -18.20350         0.01371
   C       -0.11927       -11.66658        -0.56394
   C       -0.31436       -10.30511        -0.64446
   C       -0.87748        -8.27118        -4.14610
   C       -1.72475        -9.37397        -4.05148
   C       -2.11610       -10.05567        -5.18765
   C       -1.67246        -9.64728        -6.43499
   C       -0.84345        -8.54287        -6.54121
   C       -0.45428        -7.85522        -5.40742
   C       -1.65707        -5.44614        -3.63218
   C       -1.75157        -4.07097        -3.69490
   C       -0.47148        -1.06460        -2.06093
   N       -0.02214        -1.70483        -0.96197
   C        0.32567        -1.00155         0.08181
   C        0.81304        -1.75352         1.27674
   H        0.50916         2.29045         1.03110
   H        1.70878         1.06095         1.47820
   H        0.07337         0.96481         2.12772
   H       -1.18849         2.08641        -3.16147
   H       -1.88386         0.77530        -5.15282
   H       -1.65437        -1.66318        -5.17542
   H        1.24114        -3.26529        -2.35937
   H        1.40546        -5.71004        -2.23505
   H       -1.66900        -6.23507        -0.70529
   H       -1.28537        -4.98047         1.36802
   H        0.73432        -5.41251         2.72434
   H        2.35372        -7.12606         1.99641
   H        1.97702        -8.37382        -0.09007
   H        1.31985        -9.67696        -3.53357
   H        1.69342       -12.08957        -3.39118
   H        1.12683       -18.78067        -1.73365
   H        2.25554       -20.62492        -2.86758
   H        6.08792       -19.22728        -7.80310
   H        5.36451       -17.49134        -9.39294
   H        3.01887       -16.72419        -9.40286
   H        1.39569       -17.72221        -7.83420
   H        2.11697       -19.45732        -6.24865
   H        4.24238       -21.77055        -8.29966
   H        5.56752       -23.63366        -9.20142
   H        7.83668       -24.15562       -10.08185
   H        9.04716       -26.12777       -10.89100
   H        9.63426       -27.96992        -9.33290
   H        9.56504       -29.81077        -5.19561
   H        8.11420       -29.50635        -4.21994
   H        9.62688       -28.69910        -3.81309
   H        8.31789       -26.72370        -2.98596
   H        6.80379       -27.51505        -3.41691
   H        6.93939       -25.74760        -3.53585
   H        8.20361       -23.37862        -5.85319
   H        6.88154       -21.51842        -4.95237
   H        5.28732       -20.47664        -2.17800
   H        5.74499       -22.40737        -0.72359
   H        5.23314       -24.69235        -1.50082
   H        4.23369       -25.03178        -3.73588
   H        3.77087       -23.10517        -5.18392
   H        4.75893       -17.84501        -4.93287
   H        3.61327       -15.99221        -3.82585
   H       -2.01119       -15.89197         2.29080
   H       -0.87704       -17.25224         2.52670
   H       -2.24455       -17.42952         1.41095
   H       -0.52812       -12.21456         0.26813
   H       -0.87240        -9.79984         0.13056
   H       -2.08703        -9.68564        -3.08280
   H       -2.77490       -10.90735        -5.10038
   H       -1.97789       -10.18334        -7.32141
   H       -0.50069        -8.21512        -7.51199
   H        0.19411        -6.99423        -5.49019
   H       -2.47021        -6.06119        -3.99181
   H       -2.64502        -3.61310        -4.09463
   H        0.78977        -2.81851         1.06049
   H        0.18321        -1.54506         2.14039
   H        1.83138        -1.45615         1.52368
*
