# ORCA input file
# SCF done       -142.077998262109          0.000398506073
! CAM-B3LYP def2-SVP def2/J RIJCOSX Grid4 TightSCF
%maxcore 5000
%tddft
    Mode sTDDFT
    Ethresh 5.0
    maxcore 5000
end

%pal
  nprocs 6
  end
* xyz 0 1
   C        1.43381        -0.14416        -3.11018
   O        1.88831         1.14451        -2.78051
   C        2.17381         1.44985        -1.49574
   C        2.20694         2.81396        -1.14255
   C        2.36818         3.03455         0.20352
   C        2.43504         4.30864         0.85552
   C        2.53730         4.47856         2.23055
   F        2.56821         3.39388         3.02879
   C        2.59274         5.72408         2.87493
   F        2.60333         5.69280         4.21694
   C        2.57043         6.93527         2.19428
   C        2.62455         8.23589         2.78884
   S        1.86122         9.57956         1.99004
   C        2.31357        10.64633         3.27956
   C        1.94371        12.01970         3.26830
   C        1.21058        12.55503         2.18368
   N        0.88542        11.72200         1.17944
   C        0.21059        12.18807         0.16858
   C       -0.18154        13.54641         0.11497
   N        0.11029        14.38961         1.06003
   C        0.81382        13.93534         2.12844
   C        1.13598        14.81706         3.15470
   C        1.85505        14.31624         4.23191
   N        2.25658        15.00465         5.31008
   S        3.05071        14.02010         6.28792
   N        2.94313        12.67107         5.42368
   C        2.26485        12.92555         4.30130
   C        3.05271         9.99123         4.24796
   C        3.24169         8.63225         3.97775
   O        3.98462         7.76400         4.69253
   C        4.57861         8.23857         5.87744
   C        2.44169         6.79364         0.79076
   N        2.37301         7.73855        -0.15471
   N        2.27554         7.07459        -1.27124
   C        2.17278         7.74348        -2.53120
   N        2.27467         5.77195        -1.17873
   C        2.38218         5.52874         0.13523
   S        2.45172         1.53322         1.06984
   C        2.33731         0.61236        -0.40206
   C        2.49651        -0.81752        -0.28650
   C        3.42191        -1.54903        -1.05698
   N        4.19230        -0.88536        -1.95237
   C        5.07156        -1.56402        -2.62888
   C        5.20526        -2.96704        -2.48443
   N        4.49486        -3.64295        -1.63360
   C        3.60302        -2.96529        -0.86345
   C        2.89666        -3.66623         0.10743
   C        2.01309        -2.95257         0.90499
   N        1.25127        -3.42347         1.90409
   S        0.40042        -2.21463         2.51743
   N        0.92090        -1.03321         1.57348
   C        1.81914        -1.53047         0.71620
   H        0.87923        -0.03572        -4.04258
   H        0.77532        -0.54844        -2.33594
   H        2.26728        -0.83241        -3.26729
   H        2.10698         3.60495        -1.86093
   H       -0.03386        11.49129        -0.62084
   H       -0.74292        13.93303        -0.72541
   H        0.83331        15.84879         3.10898
   H        3.42916        10.50952         5.10964
   H        5.10508         7.38606         6.30252
   H        3.82527         8.59225         6.58717
   H        5.28987         9.04470         5.67066
   H        2.21954         8.81322        -2.34287
   H        1.22916         7.48565        -3.01303
   H        2.99261         7.43705        -3.18128
   H        5.68807        -1.00625        -3.32092
   H        5.90997        -3.52634        -3.08562
   H        3.05307        -4.72313         0.23842
*
