# ORCA input file
# SCF done       -188.850613390867          0.000536563427
! CAM-B3LYP def2-SVP def2/J RIJCOSX Grid4 TightSCF
%maxcore 5000
%tddft
    Mode sTDDFT
    Ethresh 5.0
    maxcore 5000
end

%pal
  nprocs 6
  end
* xyz 0 1
   C        5.63660        -2.37887         0.17968
   O        5.20308        -3.68048         0.55983
   C        5.80679        -4.72716        -0.08672
   C        5.58680        -4.87711        -1.49267
   O        4.73584        -4.00596        -2.11917
   C        3.37218        -4.05536        -1.71294
   C        6.23598        -5.84362        -2.26095
   C        6.10006        -6.00771        -3.67775
   C        5.44189        -5.19462        -4.58261
   C        5.51856        -5.70094        -5.87578
   S        4.91788        -5.19330        -7.40818
   C        5.64458        -6.59895        -8.18507
   C        5.59604        -6.80919        -9.58034
   C        4.73886        -6.29463       -10.50730
   C        5.15176        -6.23613       -11.93381
   O        6.09390        -6.79035       -12.44552
   C        4.19019        -5.30265       -12.57082
   C        4.18098        -4.81701       -13.86005
   C        3.15473        -3.94301       -14.23192
   C        3.17057        -3.43535       -15.55691
   N        3.30542        -3.06142       -16.63079
   C        2.16816        -3.56352       -13.30557
   C        1.06754        -2.66145       -13.78755
   O        0.73305        -2.62935       -14.93658
   O        0.47375        -1.89287       -12.86709
   C        2.18982        -4.06636       -12.00626
   C        3.20124        -4.93900       -11.63778
   C        3.44740        -5.65664       -10.38700
   C        2.50955        -5.90525        -9.41905
   C        2.68165        -6.87733        -8.41034
   N        2.76060        -7.70359        -7.61820
   C        1.24686        -5.28239        -9.37579
   N        0.22844        -4.75956        -9.29087
   C        6.34067        -7.38353        -7.27990
   C        6.24742        -6.89709        -5.98104
   S        6.84252        -7.40106        -4.43982
   C        7.06075        -6.73363        -1.52484
   N        7.78149        -7.76150        -1.92292
   O        8.33399        -8.27759        -0.82996
   N        7.99962        -7.62187         0.27600
   C        7.20134        -6.64386        -0.09870
   C        6.57775        -5.61839         0.65906
   C        6.80259        -5.54061         2.07183
   C        6.22124        -4.68854         2.99282
   C        6.72206        -4.89972         4.27314
   S        6.44060        -4.17795         5.81084
   C        7.61973        -5.25466         6.55615
   C        7.87969        -5.24065         7.94521
   C        7.65117        -4.24265         8.84366
   C        7.53111        -4.55560        10.29089
   O        7.83678        -5.58189        10.84796
   C        6.89448        -3.35364        10.88613
   C        6.43682        -3.16068        12.16954
   C        5.82724        -1.93882        12.48482
   C        5.37599        -1.78037        13.81666
   N        5.04377        -1.68791        14.91114
   C        5.66722        -0.94354        11.50450
   C        4.94467         0.36200        11.71982
   O        4.44196         0.93537        10.79460
   O        4.89334         0.86846        12.95182
   C        6.14327        -1.15740        10.21060
   C        6.76990        -2.35142         9.90472
   C        7.39183        -2.82835         8.67078
   C        7.90921        -2.02623         7.69078
   C        8.76428        -2.50781         6.67545
   N        9.50530        -2.85677         5.87208
   C        7.74689        -0.62506         7.65123
   N        7.64821         0.51453         7.56873
   C        8.15969        -6.14185         5.64033
   C        7.67873        -5.92488         4.35343
   S        7.96170        -6.63395         2.80422
   H        5.01144        -1.68719         0.74044
   H        5.51630        -2.20060        -0.88986
   H        6.68473        -2.23487         0.45784
   H        3.25462        -3.90022        -0.63974
   H        2.93132        -5.01659        -1.99297
   H        2.87660        -3.25390        -2.25687
   H        4.94419        -4.28433        -4.31130
   H        6.41022        -7.40127        -9.98878
   H        4.94204        -5.10973       -14.56723
   H        0.83022        -1.99575       -11.97456
   H        1.41431        -3.80520       -11.30105
   H        6.85696        -8.28236        -7.56268
   H        5.47256        -3.96270         2.74268
   H        8.23432        -6.17621         8.36734
   H        6.54103        -3.93244        12.91725
   H        5.28008         0.31830        13.64899
   H        5.98791        -0.38116         9.47718
   H        8.89444        -6.87993         5.90441
*
