# ORCA input file
# SCF done       -225.788368504064          0.000217432305
! CAM-B3LYP def2-SVP def2/J RIJCOSX Grid4 TightSCF
%maxcore 5000
%tddft
    Mode sTDDFT
    Ethresh 5.0
    maxcore 5000
end

%pal
  nprocs 6
  end
* xyz 0 1
   C        1.98925         0.00723         0.82923
   O        1.78446         0.81900        -0.31903
   C        2.90031         1.50681        -0.73476
   C        3.37240         2.62294        -0.06914
   C        2.77415         3.26060         1.09027
   C        3.48578         3.86881         2.05907
   C        4.94674         3.88005         2.13087
   C        5.63349         5.08330         2.29072
   F        4.93542         6.21929         2.38993
   C        7.02147         5.13967         2.30380
   F        7.64540         6.31426         2.42556
   C        7.76373         3.97097         2.17154
   F        9.09417         4.02545         2.16494
   C        7.10465         2.74963         2.05483
   F        7.80027         1.62081         1.94367
   C        5.71608         2.71688         2.04505
   F        5.10126         1.53297         1.94309
   C        1.29772         3.25349         1.12983
   C        0.54672         3.56192        -0.00550
   F        1.16215         3.93615        -1.12807
   C       -0.84226         3.51748         0.00410
   F       -1.53003         3.82088        -1.09596
   C       -1.51654         3.15502         1.16704
   F       -2.84598         3.10330         1.18278
   C       -0.78971         2.84831         2.31352
   F       -1.42392         2.49726         3.43215
   C        0.59921         2.90434         2.28493
   F        1.27443         2.58247         3.39329
   S        4.80420         3.24832        -0.79236
   C        4.79593         1.99624        -1.97951
   C        5.97847         1.95852        -2.78414
   N        6.13355         1.11315        -3.79832
   C        7.32148         1.16490        -4.37610
   N        8.33175         1.92113        -4.00774
   C        8.08482         2.75047        -2.98197
   C        9.20592         3.51039        -2.50420
   S       10.72583         3.07358        -3.19129
   C       11.56803         4.08458        -2.07233
   C       13.01173         4.20263        -2.10427
   C       13.78201         4.28335        -1.00052
   C       13.31382         4.11280         0.36695
   C       12.43704         3.09843         0.75931
   F       12.02117         2.19390        -0.13236
   C       12.00172         2.97332         2.07242
   F       11.17417         1.98587         2.41345
   C       12.43693         3.87692         3.03701
   F       12.01029         3.77374         4.29554
   C       13.33033         4.88257         2.67981
   F       13.76283         5.74851         3.59968
   C       13.76549         4.97928         1.36544
   F       14.61981         5.95422         1.03679
   C       13.62222         4.29686        -3.44443
   C       14.76432         3.56961        -3.78147
   F       15.32825         2.76441        -2.87882
   C       15.33067         3.64068        -5.04984
   F       16.41793         2.92640        -5.34007
   C       14.76010         4.46148        -6.01839
   F       15.29707         4.53893        -7.23371
   C       13.62648         5.20539        -5.70362
   F       13.07933         6.00577        -6.61872
   C       13.07227         5.11585        -4.43224
   F       12.00470         5.86982        -4.15393
   C       10.70266         4.75025        -1.22045
   O       11.19967         5.59444        -0.28761
   C       10.40546         6.68392         0.15309
   C        9.33752         4.42949        -1.47260
   O        8.34256         4.97933        -0.72675
   C        7.29868         5.63328        -1.43336
   N        6.91262         2.82500        -2.37099
   C        3.71236         1.13989        -1.85155
   O        3.55348         0.13391        -2.71160
   C        2.39264        -0.67166        -2.64776
   H        1.01882        -0.42437         1.06491
   H        2.35414         0.59200         1.67703
   H        2.70798        -0.79180         0.62310
   H        2.97626         4.43469         2.82568
   H        7.48098         0.50956        -5.22299
   H       14.82880         4.53401        -1.09897
   H       11.08689         7.32003         0.71560
   H        9.59536         6.35243         0.80090
   H        9.99795         7.24522        -0.69051
   H        6.68252         6.11027        -0.67405
   H        6.69780         4.92146        -2.00016
   H        7.70764         6.39308        -2.10556
   H        2.41644        -1.27537        -3.55346
   H        1.48443        -0.06625        -2.62822
   H        2.40873        -1.32986        -1.77530
*
