# ORCA input file
# SCF done       -161.270929790624          0.000416249920
! CAM-B3LYP def2-SVP def2/J RIJCOSX Grid4 TightSCF
%maxcore 5000
%tddft
    Mode sTDDFT
    Ethresh 5.0
    maxcore 5000
end

%pal
  nprocs 6
  end
* xyz 0 1
   C        0.91906        -3.36078         7.96402
   N        1.63830        -3.09361         6.74200
   C        2.59654        -2.13810         6.62483
   C        3.05617        -1.28678         7.59851
   C        4.06657        -0.35421         7.28522
   N        4.88846         0.40692         7.03891
   C        2.61670        -1.23935         8.93234
   N        2.30402        -1.14957        10.03396
   S        3.23778        -2.08995         5.00480
   C        2.18075        -3.40484         4.49018
   C        2.25414        -3.82332         3.19203
   C        1.56335        -4.83305         2.49791
   C        0.60172        -5.75842         2.89143
   C        0.18322        -6.59045         1.86830
   C        0.82554        -6.30873         0.65760
   S        1.94790        -5.02147         0.78905
   C        0.45321        -7.10036        -0.45160
   S        0.98479        -7.06105        -2.08859
   C       -0.09889        -8.36802        -2.46615
   C       -0.15539        -8.84359        -3.80736
   N        0.63728        -8.25866        -4.69455
   N        0.66400        -8.58228        -5.94654
   C       -0.10048        -9.52995        -6.47083
   C        0.01403        -9.76173        -7.87143
   C       -0.68214       -10.65750        -8.66409
   C       -0.31969       -10.59013       -10.00323
   C        0.66958        -9.62766       -10.22111
   S        1.14860        -8.81037        -8.78425
   C        1.10423        -9.47443       -11.55721
   S        2.27826        -8.42683       -12.23945
   C        1.95963        -9.07858       -13.83608
   C        2.68228        -8.56604       -14.92984
   C        2.57916        -8.90541       -16.24221
   S        1.50524       -10.08458       -16.96328
   C        2.13307        -9.73909       -18.56113
   C        1.64449       -10.39995       -19.65940
   C        0.62818       -11.36236       -19.48923
   N       -0.19968       -12.14401       -19.34825
   C        2.06154       -10.21477       -20.98881
   N        2.35719       -10.11136       -22.09363
   N        3.09986        -8.78831       -18.52169
   C        3.80406        -8.29880       -19.68190
   C        3.40476        -8.27475       -17.26386
   O        4.24526        -7.42258       -17.08504
   C        0.97890       -10.06431       -13.78447
   C        0.49233       -10.29540       -12.50872
  Si       -0.78087       -11.40792       -11.64916
   C       -2.56171       -11.03343       -12.19122
   C       -0.31973       -13.24781       -11.73113
   C       -0.99245       -10.25062        -5.62273
   N       -1.83796       -11.23587        -5.90455
   S       -2.59381       -11.67191        -4.54968
   N       -1.88449       -10.63028        -3.54554
   C       -1.01981        -9.89435        -4.23533
   C       -0.81803        -8.79334        -1.36247
   C       -0.51378        -8.08026        -0.21046
  Si       -1.02757        -8.02640         1.61349
   C       -2.84016        -7.51949         1.86380
   C       -0.52569        -9.58760         2.57122
   C        1.35377        -3.84140         5.60226
   O        0.51368        -4.71850         5.61632
   H        0.37377        -2.47590         8.29308
   H        1.60080        -3.67625         8.75425
   H        0.21588        -4.16462         7.74390
   H        2.97162        -3.28253         2.58390
   H        0.23417        -5.80168         3.89905
   H       -1.42245       -11.32185        -8.25692
   H        3.41803        -7.79876       -14.71797
   H        4.34309        -9.10655       -20.17774
   H        4.51187        -7.55064       -19.32337
   H        3.11328        -7.84087       -20.39045
   H        0.63650       -10.59411       -14.65471
   H       -3.27268       -11.56560       -11.56765
   H       -2.72420       -11.34623       -13.21756
   H       -2.78743        -9.97350       -12.12521
   H        0.70537       -13.42021       -11.41794
   H       -0.42792       -13.62485       -12.74293
   H       -0.96828       -13.83501       -11.08923
   H       -1.53278        -9.59375        -1.42303
   H       -3.03274        -7.29706         2.90824
   H       -3.50872        -8.32118         1.56735
   H       -3.09533        -6.63881         1.28252
   H        0.51128        -9.85359         2.39058
   H       -1.14263       -10.43214         2.28188
   H       -0.65042        -9.43691         3.63854
*
