# ORCA input file
# SCF done       -209.417284045227          0.000381941820
! CAM-B3LYP def2-SVP def2/J RIJCOSX Grid4 TightSCF
%maxcore 5000
%tddft
    Mode sTDDFT
    Ethresh 5.0
    maxcore 5000
end

%pal
  nprocs 6
  end
* xyz 0 1
   C        3.97229        -0.41888         4.69631
   C        4.51710        -0.36594         3.31726
   S        4.23980        -1.68390         2.19276
   C        5.15229        -0.87470         0.96354
   C        5.52012        -1.23727        -0.32902
   C        5.17003        -2.43602        -0.98245
   S        4.10110        -3.55261        -0.15691
   C        4.15301        -4.66053        -1.45434
   C        4.94512        -4.23319        -2.48060
   C        5.53677        -2.95458        -2.23030
   C        6.41363        -2.31363        -3.17313
   O        6.90600        -1.20272        -3.02505
   C        6.69159        -3.11618        -4.38404
   C        7.53943        -2.73724        -5.39842
   C        8.35724        -1.48597        -5.49583
   F        7.61186        -0.37992        -5.55955
   F        9.21233        -1.34492        -4.47909
   F        9.10552        -1.49901        -6.61500
   S        7.62654        -3.89428        -6.66624
   C        6.51400        -4.90807        -5.83937
   C        6.11421        -6.21488        -6.45361
   F        6.74176        -6.39465        -7.63055
   F        6.43914        -7.26223        -5.69194
   F        4.80642        -6.28492        -6.71148
   C        6.09637        -4.38153        -4.64065
   C        5.15214        -5.02287        -3.69690
   O        4.61805        -6.08829        -3.90939
   S        6.49520         0.04627        -1.01978
   C        6.37104         1.02443         0.40808
   C        6.99536         2.31593         0.42240
   C        6.51573         3.41561         1.15589
   N        7.11194         4.58196         1.14322
   C        8.19662         4.71714         0.38133
   C        8.87678         5.97523         0.35523
   S        8.42788         7.33551         1.31146
   C        9.71514         8.31968         0.63963
   C        9.82967         9.70831         0.89910
   S       10.70991        10.71258        -0.23196
   C       10.40871        12.11965         0.67231
   C        9.68385        11.87278         1.80468
   C        9.32294        10.49531         1.93997
   C        8.53859        10.01839         3.05338
   O        8.06164         8.89814         3.14530
   C        8.31729        11.03093         4.11177
   C        7.72045        10.78063         5.32477
   C        7.22468         9.46968         5.85398
   F        6.17403         8.99791         5.18004
   F        8.16898         8.52504         5.85812
   F        6.82122         9.60161         7.13236
   S        7.58071        12.18502         6.30578
   C        8.32319        13.13367         5.08122
   C        8.53363        14.59866         5.31198
   F        8.09027        14.95339         6.53248
   F        9.82251        14.94590         5.26674
   F        7.87307        15.36071         4.43786
   C        8.67000        12.40070         3.97207
   C        9.34189        12.92626         2.76106
   O        9.59559        14.09892         2.59614
   C       10.49676         7.56020        -0.24861
   C       11.68783         7.69255        -1.01831
   F       12.45729         8.79954        -1.04611
   C       12.04468         6.57787        -1.71287
   C       13.22720         6.42102        -2.59615
   S       10.92791         5.25420        -1.45735
   C       10.00303         6.24248        -0.39346
   N        8.71067         3.75425        -0.39650
   C        8.12712         2.58333        -0.36941
   C        5.62829         0.38648         1.39475
   C        5.25244         0.62180         2.75103
   F        5.61086         1.71895         3.43775
   H        2.88292        -0.43759         4.67568
   H        4.30086         0.45485         5.25410
   H        4.31270        -1.31857         5.20705
   H        3.60503        -5.58158        -1.41245
   H        5.61277         3.35829         1.74571
   H       10.78426        13.07275         0.35419
   H       13.82753         7.32736        -2.57998
   H       12.91083         6.22278        -3.61952
   H       13.83718         5.58074        -2.26839
   H        8.56662         1.80988        -0.98725
*
