# ORCA input file
# SCF done       -262.346399197545          0.000533942574
! CAM-B3LYP def2-SVP def2/J RIJCOSX Grid4 TightSCF
%maxcore 5000
%tddft
    Mode sTDDFT
    Ethresh 5.0
    maxcore 5000
end

%pal
  nprocs 6
  end
* xyz 0 1
   C        6.10708        -2.92794        10.71323
   O        6.63055        -2.94102         9.39005
   C        5.88990        -2.33493         8.46886
   O        4.78163        -1.90346         8.63387
   C        6.57682        -2.35068         7.12839
   C        6.43179        -3.45131         6.29142
   C        7.01503        -3.40355         5.04051
   C        7.72951        -2.27147         4.60116
   C        7.87839        -1.17899         5.43653
   C        7.29933        -1.23037         6.70395
   C        7.43314        -0.09439         7.65912
   O        7.13287        -0.16775         8.82547
   O        7.91810         1.00179         7.08271
   C        8.05709         2.14099         7.92206
   C        8.15075        -2.49066         3.21926
   C        8.43628        -1.51212         2.30555
   C        8.60940        -0.15127         2.63376
   N        8.78135         0.96174         2.85159
   C        8.47490        -1.75715         0.91570
   N        8.43748        -1.93066        -0.21817
   C        7.89190        -3.88402         2.91006
   C        8.36797        -4.67354         1.91512
   C        9.47853        -4.41213         1.07076
   S       10.88157        -3.50867         1.56936
   C       11.62130        -3.69631         0.00933
   C       12.92463        -3.15022        -0.28608
   C       13.97029        -3.19994         0.58385
   C       15.23800        -2.54645         0.35550
   S       16.70334        -3.37943         0.74615
   C       17.68857        -2.05135         0.19810
   C       19.08684        -2.25280         0.22782
   C       20.16017        -1.41330         0.19413
   C       21.48422        -2.00179        -0.17874
   O       21.75219        -3.17531        -0.26064
   C       22.35497        -0.84164        -0.46192
   C       23.63611        -0.82476        -0.97097
   C       24.24394         0.41228        -1.17967
   C       25.59666         0.52654        -1.78821
   O       26.01710         1.54004        -2.28980
   O       26.28009        -0.61537        -1.73087
   C       27.58440        -0.58842        -2.29582
   C       23.56772         1.59550        -0.86391
   C       24.28278         2.91227        -1.01599
   O       25.06163         3.33213        -0.20431
   O       23.87575         3.55623        -2.10331
   C       24.53615         4.78721        -2.37615
   C       22.27823         1.57369        -0.34380
   C       21.66675         0.34602        -0.14872
   C       20.34726         0.00192         0.38011
   C       19.53138         0.83811         1.09780
   C       19.75295         2.22110         1.26333
   N       19.85190         3.35532         1.40474
   C       18.40758         0.38602         1.81832
   N       17.49015         0.05123         2.42150
   C       16.88343        -1.01576        -0.26620
   C       15.49981        -1.29886        -0.18600
   O       14.47373        -0.48178        -0.52694
   C       14.76929         0.71978        -1.21248
   C       15.97616         1.44502        -0.65190
   S       17.47408         0.46373        -0.98681
   C       13.90203        -4.01259         1.81546
   C       14.22999        -3.45486         3.05193
   F       14.54381        -2.16298         3.12339
   C       14.20339        -4.20788         4.22073
   F       14.50329        -3.64631         5.39015
   C       13.85292        -5.55427         4.16684
   F       13.82119        -6.28297         5.27948
   C       13.53015        -6.13360         2.94245
   F       13.19102        -7.42145         2.88204
   C       13.55936        -5.36450         1.78580
   F       13.25058        -5.94593         0.62340
   C       13.06403        -2.52833        -1.61585
   C       14.06832        -2.90516        -2.50529
   F       14.93852        -3.85747        -2.16237
   C       14.18421        -2.31914        -3.76038
   F       15.15809        -2.69470        -4.59078
   C       13.28371        -1.33075        -4.14731
   F       13.39466        -0.75563        -5.34411
   C       12.27549        -0.93504        -3.27226
   F       11.42497         0.02620        -3.63280
   C       12.17325        -1.53439        -2.02274
   F       11.22302        -1.12360        -1.18627
   C       10.80042        -4.39335        -0.85351
   C        9.61533        -4.86036        -0.23533
   O        8.64620        -5.61003        -0.78376
   C        8.90341        -6.16360        -2.06093
   C        9.47046        -5.14218        -3.02937
   S       11.17498        -4.71512        -2.53537
   C        7.01227        -4.43608         3.97760
   O        6.46126        -5.50937         3.98287
   H        5.07621        -3.28717        10.71702
   H        6.13271        -1.90891        11.10251
   H        6.74766        -3.58039        11.30052
   H        5.87291        -4.32102         6.60060
   H        8.43215        -0.30260         5.14119
   H        8.78331         1.94199         8.71270
   H        7.09803         2.39079         8.37973
   H        8.39966         2.94765         7.27969
   H        7.87581        -5.62913         1.76535
   H       19.37114        -3.30335         0.23411
   H       24.15057        -1.74225        -1.20909
   H       28.17486         0.21121        -1.84463
   H       27.52578        -0.41773        -3.37275
   H       28.02591        -1.55889        -2.08563
   H       24.49115         5.44279        -1.50444
   H       24.01659         5.23001        -3.22163
   H       25.58078         4.59205        -2.62381
   H       21.77864         2.50090        -0.11287
   H       13.86860         1.32971        -1.10120
   H       14.92904         0.50751        -2.27957
   H       15.89541         1.57309         0.42852
   H       16.11765         2.40682        -1.13865
   H        7.93254        -6.52712        -2.40676
   H        9.59329        -7.01289        -1.96539
   H        8.87455        -4.22898        -3.02587
   H        9.53588        -5.54792        -4.03581
*
