# ORCA input file
# SCF done       -148.097542871060          0.000754773554
! CAM-B3LYP def2-SVP def2/J RIJCOSX Grid4 TightSCF
%maxcore 5000
%tddft
    Mode sTDDFT
    Ethresh 5.0
    maxcore 5000
end

%pal
  nprocs 6
  end
* xyz 0 1
   C        4.62394         0.43543         1.00887
   O        5.16215         1.73724         1.16861
   C        4.36053         2.63214         1.83953
   C        4.15365         2.46913         3.23724
   O        4.71412         1.38255         3.87660
   C        6.11504         1.47669         4.06837
   C        3.41541         3.37393         3.97578
   C        3.25449         3.24978         5.42580
   C        2.82457         2.09391         6.02620
   C        2.64672         1.99923         7.42185
   C        2.89574         3.05320         8.25231
   C        3.36660         4.25598         7.68736
   N        3.68968         5.35270         8.36437
  Se        4.26697         6.56254         7.24011
   N        4.05677         5.51888         5.85455
   C        3.55910         4.35801         6.26042
   C        2.86680         4.47448         3.28392
   N        2.13695         5.46036         3.80391
   S        1.80467         6.51995         2.64817
   N        2.53703         5.77864         1.42561
   C        3.08081         4.64685         1.87184
   C        3.81466         3.69187         1.12782
   C        4.03227         3.81583        -0.29994
   S        5.60060         3.42069        -0.93819
   C        5.11415         3.82646        -2.53587
   C        5.98559         3.60613        -3.66519
   C        7.36475         3.74790        -3.54974
   O        7.80308         4.07820        -2.31336
   C        9.11021         3.75398        -1.88342
   C        8.22604         3.61421        -4.68721
   O        9.51142         4.02887        -4.48516
   C       10.20599         4.66327        -5.53532
   C        7.74283         3.15671        -5.90181
   C        8.59381         2.75991        -7.02841
   C        8.34955         3.13735        -8.32476
   C        9.15170         2.69327        -9.39512
   C       10.20825         1.84940        -9.20467
   C       10.48278         1.40430        -7.89606
   N       11.45254         0.56435        -7.54885
  Se       11.37443         0.28256        -5.82393
   N       10.00024         1.34552        -5.61522
   C        9.66583         1.85620        -6.79467
   C        6.34897         2.95353        -6.02066
   N        5.69421         2.50678        -7.09151
   S        4.12884         2.39919        -6.73310
   N        4.20664         2.89957        -5.20731
   C        5.46995         3.19388        -4.91425
   C        3.79049         4.23278        -2.55380
   N        3.17633         4.77191        -3.72392
   O        2.01037         4.52010        -3.93832
   O        3.85717         5.50366        -4.41540
   C        3.15597         4.21260        -1.28235
   C        1.72411         4.56242        -1.06350
   H        5.40205        -0.14770         0.52035
   H        3.73294         0.46323         0.37274
   H        4.36974        -0.01613         1.97062
   H        6.35577         2.31526         4.73057
   H        6.64395         1.60043         3.11985
   H        6.41379         0.54221         4.53964
   H        2.59978         1.23721         5.40994
   H        2.29478         1.06437         7.83199
   H        2.75240         2.99390         9.31927
   H        9.45495         2.81423        -2.31637
   H        9.03639         3.65720        -0.79937
   H        9.81773         4.54704        -2.13229
   H       10.86304         5.39308        -5.05860
   H        9.52396         5.17761        -6.21599
   H       10.81797         3.95831        -6.10447
   H        7.52441         3.80161        -8.52877
   H        8.91446         3.03797       -10.39066
   H       10.82729         1.50618       -10.01776
   H        1.62657         5.62621        -0.85156
   H        1.32834         4.01341        -0.21330
   H        1.14041         4.32616        -1.94883
*
