# ORCA input file
# SCF done       -124.190168448788          0.000332353783
! CAM-B3LYP def2-SVP def2/J RIJCOSX Grid4 TightSCF
%maxcore 5000
%tddft
    Mode sTDDFT
    Ethresh 5.0
    maxcore 5000
end

%pal
  nprocs 6
  end
* xyz 0 1
   C       10.01914         1.59603        -8.49515
   C       10.77421         0.98776        -9.41031
   C       10.07394         1.28733        -7.12921
   C       10.12437         1.02207        -5.94556
   C       10.18372         0.72732        -4.59090
   C        9.49145         1.42561        -3.65370
   C        9.58643         1.10534        -2.27644
   N       10.37510         0.12316        -1.85748
   C       10.30699         0.12245        -0.51590
   C        9.43927         1.19592        -0.03178
   C        9.37548         1.19103         1.43091
   O        8.77446         1.95566         2.16199
   C       10.22181         0.03876         1.78800
   C       10.77926        -0.57989         0.57285
   N       11.55277        -1.64548         0.88825
   C       11.50449        -1.72696         2.19850
   C       10.68610        -0.71271         2.82253
   C        8.92466         1.82146        -1.14788
   C        8.00471         2.89876        -1.14180
   C        7.18499         3.46031        -2.13772
   C        6.36319         4.52392        -1.65054
   N        5.50795         5.17986        -2.44975
   C        5.46026         4.78602        -3.69466
   C        6.25585         3.72465        -4.19663
   C        6.16409         3.30631        -5.62646
   N        7.09911         3.07991        -3.42597
   C        6.55461         4.79688        -0.28291
   S        7.71622         3.70476         0.38083
   C        5.89702         5.79926         0.44584
   C        6.13337         6.07829         1.76059
   C        5.48374         7.07980         2.49442
   C        5.74853         7.42708         3.83185
   C        4.92659         8.48974         4.31781
   N        5.06543         8.94073         5.58169
   C        5.97972         8.35430         6.30413
   C        6.80337         7.29786         5.82533
   C        7.83445         6.67580         6.70432
   N        6.68187         6.84458         4.60086
   C        4.01925         8.96658         3.35825
   S        4.21571         8.08981         1.87358
   C        3.04453         9.98469         3.45976
   C        2.81342        10.71211         4.57733
   C        1.80085        11.73243         4.63796
   C        1.58095        12.47254         5.81295
   N        0.65427        13.40581         5.89604
   C       -0.07812        13.63118         4.81223
   C        0.13082        12.91216         3.64049
   N        1.05413        11.97585         3.55084
   H        9.31918         2.37440        -8.77563
   H       11.47368         0.21511        -9.13844
   H       10.71401         1.24838       -10.45278
   H       10.81632        -0.09456        -4.27958
   H        8.83678         2.23565        -3.93625
   H       12.04900        -2.49896         2.71408
   H       10.51297        -0.60929         3.87567
   H        4.77221         5.31329        -4.34154
   H        6.84917         2.48448        -5.81696
   H        6.41168         4.14379        -6.27726
   H        5.14815         2.99038        -5.85846
   H        5.16815         6.37629        -0.10954
   H        6.87390         5.51134         2.31069
   H        6.09251         8.71697         7.31751
   H        8.34663         5.88683         6.16160
   H        7.36729         6.25941         7.59551
   H        8.55746         7.42536         7.02327
   H        2.44644        10.18281         2.58031
   H        3.39636        10.53447         5.46839
   H        2.17206        12.29987         6.70249
   H       -0.83646        14.39681         4.89369
   H       -0.45726        13.08907         2.74945
*
