# ORCA input file
# SCF done       -187.817074896076          0.000380070803
! CAM-B3LYP def2-SVP def2/J RIJCOSX Grid4 TightSCF
%maxcore 5000
%tddft
    Mode sTDDFT
    Ethresh 5.0
    maxcore 5000
end

%pal
  nprocs 6
  end
* xyz 0 1
   C        8.46741         3.39678        -6.57789
   S        7.22691         3.62182        -5.43972
   C        7.80318         2.28223        -4.48363
   C        8.95465         1.73986        -5.03832
   C        9.29399         2.34802        -6.26328
   C       10.38888         1.84238        -7.16151
   C        9.75249         1.28075        -8.43471
   F        9.05525         2.21174        -9.11229
   F       10.66849         0.81079        -9.29147
   F        8.89380         0.27740        -8.20627
   C       11.25702         0.77470        -6.48012
   C       10.44458        -0.14818        -5.57354
   C        9.83666         0.67844        -4.43696
   O       10.92911         1.27487        -3.75465
   C       10.64840         1.80587        -2.48289
   C        7.11074         1.87119        -3.31639
   N        7.71291         1.18793        -2.35449
   C        6.83427         1.09610        -1.33845
   C        5.58354         1.78268        -1.66609
   C        4.61072         1.65977        -0.57410
   O        3.48493         2.11238        -0.52354
   C        5.34570         0.85267         0.41328
   C        6.70163         0.53793        -0.08827
   N        7.37096        -0.23499         0.79781
   C        6.53235        -0.42769         1.78891
   C        5.24553         0.20876         1.60606
   C        5.70738         2.21376        -2.96231
   C        4.66148         2.73509        -3.76840
   C        4.38904         2.50149        -5.12609
   C        3.12880         3.03086        -5.53365
   N        2.70248         2.90956        -6.80236
   C        3.49160         2.26689        -7.61661
   C        4.73138         1.69185        -7.21331
   C        5.58094         0.95097        -8.18527
   N        5.16715         1.81514        -5.98318
   C        2.43554         3.67667        -4.49420
   S        3.34689         3.57371        -3.02350
   C        1.17922         4.29624        -4.58623
   C        0.58822         4.97117        -3.55918
   C       -0.70039         5.53846        -3.66193
   N       -1.41041         5.52593        -4.78686
   C       -2.51376         6.24490        -4.53534
   C       -2.50114         6.78332        -3.15970
   C       -3.71442         7.57938        -2.89583
   O       -4.01518         8.19025        -1.89683
   C       -4.45662         7.44441        -4.16416
   C       -3.68606         6.63840        -5.13569
   N       -4.37671         6.49430        -6.29232
   C       -5.50637         7.13148        -6.09766
   C       -5.62762         7.73600        -4.78724
   C       -1.37592         6.29009        -2.57493
   C       -0.88210         6.48043        -1.24014
   S       -0.83417         8.08296        -0.57206
   C       -0.15123         7.49453         0.88697
   C       -0.00344         6.14271         0.88599
   C       -0.41403         5.55381        -0.33730
   C       -0.45598         4.06122        -0.50761
   C       -1.86749         3.59804        -0.14906
   F       -2.21085         3.88202         1.11533
   F       -2.80172         4.15544        -0.93432
   F       -2.01201         2.26855        -0.28731
   C        0.57119         3.31217         0.37421
   C        1.46507         4.23803         1.19334
   C        0.62695         5.27985         1.94421
   O        1.45731         6.00548         2.82794
   C        0.81848         6.44333         4.00115
   H        8.52895         4.04530        -7.43028
   H       11.01647         2.67505        -7.49983
   H       11.99618         1.27807        -5.85756
   H       11.78281         0.19500        -7.23992
   H       11.11046        -0.89547        -5.14378
   H        9.65253        -0.65762        -6.12127
   H        9.25679         0.05625        -3.74249
   H       11.60917         2.11925        -2.07739
   H       10.19254         1.05743        -1.82956
   H        9.97991         2.67116        -2.54357
   H        6.82700        -1.01251         2.64263
   H        4.42265         0.16116         2.29143
   H        3.15562         2.17638        -8.64035
   H        6.36254         0.40939        -7.66064
   H        6.04648         1.65384        -8.87634
   H        4.97980         0.25771        -8.76911
   H        0.66009         4.21324        -5.53144
   H        1.12076         5.10204        -2.62566
   H       -6.24467         7.17756        -6.87963
   H       -6.47288         8.29111        -4.43151
   H        0.12099         8.18842         1.65606
   H       -0.33725         3.78887        -1.56068
   H        1.20803         2.68919        -0.25152
   H        0.03371         2.65247         1.05875
   H        2.17364         4.75835         0.54795
   H        2.03885         3.64730         1.90589
   H       -0.16044         4.76312         2.51699
   H        1.56391         7.00437         4.56187
   H        0.47355         5.59437         4.60457
   H       -0.03931         7.08959         3.78732
*
