# ORCA input file
# SCF done       -186.370495877394          0.000485162548
! CAM-B3LYP def2-SVP def2/J RIJCOSX Grid4 TightSCF
%maxcore 5000
%tddft
    Mode sTDDFT
    Ethresh 5.0
    maxcore 5000
end

%pal
  nprocs 6
  end
* xyz 0 1
   C        0.36081         1.79118        -0.08532
   S       -0.79052         2.93717         0.42959
   C       -1.53727         2.98769        -1.15151
   C       -0.89169         2.12128        -2.02500
   C        0.20330         1.45209        -1.39843
   C        1.08917         0.49904        -2.08203
   O        2.00168        -0.06868        -1.51100
   C        0.79058         0.30730        -3.51203
   C        1.62693        -0.50819        -4.27106
   C        1.38493        -0.71268        -5.61453
   C        0.29289        -0.11392        -6.23719
   C        0.05168        -0.29235        -7.70590
   C        0.76639         0.80823        -8.49428
   C       -0.54341         0.69375        -5.47940
   C       -0.31190         0.91617        -4.12599
   C       -1.26814         1.79111        -3.40290
   O       -2.29314         2.17067        -3.93904
   C       -2.61559         3.90677        -1.32630
   S       -3.34092         4.61580         0.09907
   C       -4.40246         5.61166        -0.85368
   C       -4.18658         5.38216        -2.21650
   C       -3.18616         4.42576        -2.46298
   C       -4.89057         6.06088        -3.30512
   O       -4.63375         5.90372        -4.47279
   C       -5.30005         6.52133        -0.25677
   C       -5.41577         6.71294         1.08596
   C       -6.28869         7.67662         1.63898
   N       -6.40982         7.92457         2.98848
   C       -5.67473         7.28227         4.05033
   C       -4.26264         7.84702         4.18704
   C       -7.31630         8.96273         3.25547
   O       -7.57777         9.35170         4.37847
   C       -7.79362         9.36630         1.95274
   C       -7.15194         8.55501         0.98418
   C       -7.62530         8.95920        -0.31904
   O       -7.36327         8.56238        -1.43999
   N       -8.52294        10.00389        -0.05598
   C       -9.25045        10.64873        -1.12207
   C      -10.68899        10.14575        -1.21340
   C       -8.63326        10.26429         1.29272
   C       -9.42999        11.30367         1.82824
   C       -9.50657        11.54662         3.16372
   C      -10.24039        12.61103         3.74449
   S      -10.20788        12.82022         5.47640
   C      -11.20562        14.24040         5.39132
   C      -11.54909        14.51764         4.06156
   C      -11.00355        13.59653         3.15451
   C      -12.38111        15.63201         3.61577
   O      -12.67117        15.83412         2.46142
   C      -11.56182        14.98083         6.54317
   C      -11.22431        14.61338         7.80302
   C      -11.48662        15.29634         9.02289
   S      -10.97627        14.41417        10.44891
   C      -11.46532        15.67234        11.48234
   C      -11.98377        16.73478        10.79573
   C      -12.01594        16.53727         9.38099
   C      -12.56590        17.58305         8.51517
   O      -12.77098        17.45398         7.31767
   C      -12.88732        18.86377         9.18570
   C      -13.27781        19.93652         8.38568
   C      -13.59021        21.16071         8.94180
   C      -13.53045        21.35425        10.31943
   C      -13.90905        22.67041        10.92914
   C      -15.40461        22.69237        11.25483
   C      -13.15717        20.28456        11.12018
   C      -12.83094        19.04871        10.57284
   C      -12.42833        17.95637        11.47874
   O      -12.43921        18.06132        12.69091
   H        1.10634         1.41619         0.58803
   H        2.46769        -0.97289        -3.77753
   H        2.04506        -1.34620        -6.18919
   H       -1.01851        -0.24458        -7.91332
   H        0.42367        -1.26669        -8.02809
   H        0.39773         1.78689        -8.19648
   H        0.59389         0.68157        -9.56006
   H        1.83769         0.77386        -8.30871
   H       -1.40225         1.16975        -5.93081
   H       -2.91309         4.13245        -3.45968
   H       -5.69080         6.74966        -2.98430
   H       -5.91455         7.11081        -0.92330
   H       -4.80914         6.12209         1.75906
   H       -5.64751         6.20329         3.87502
   H       -6.23682         7.47732         4.96806
   H       -3.69547         7.70711         3.26947
   H       -3.74317         7.34684         4.99960
   H       -4.30978         8.91079         4.40650
   H       -8.71614        10.40137        -2.04370
   H       -9.22449        11.73306        -0.98156
   H      -10.69605         9.07487        -1.40112
   H      -11.20197        10.64496        -2.03066
   H      -11.22993        10.33839        -0.28944
   H       -9.97235        11.92957         1.13542
   H       -8.96394        10.90662         3.84730
   H      -11.17688        13.67834         2.09684
   H      -12.74065        16.29806         4.41858
   H      -12.12514        15.88881         6.39076
   H      -10.68677        13.67946         7.93303
   H      -11.35002        15.59719        12.54601
   H      -13.32489        19.78565         7.31736
   H      -13.88210        21.98047         8.30138
   H      -13.67931        23.48062        10.23451
   H      -13.33963        22.82982        11.84638
   H      -15.99232        22.54657        10.35127
   H      -15.67983        23.64591        11.69848
   H      -15.65069        21.89839        11.95605
   H      -13.10495        20.39076        12.19436
*
