# ORCA input file
# SCF done       -142.115754513565          0.000957051453
! CAM-B3LYP def2-SVP def2/J RIJCOSX Grid4 TightSCF
%maxcore 5000
%tddft
    Mode sTDDFT
    Ethresh 5.0
    maxcore 5000
end

%pal
  nprocs 6
  end
* xyz 0 1
   C        5.03839         3.95618         2.98802
   C        3.79621         4.30981         3.78945
   O        3.72868         4.99371         4.76503
   O        2.71966         3.72145         3.23332
   C        3.09056         2.87528         2.15354
   C        4.45673         3.41590         1.68457
   C        5.31892         2.41181         0.93093
   C        5.42452         1.07319         1.64637
   C        4.05872         0.46772         1.93471
   C        3.08423         1.40921         2.65664
   O        1.80147         0.83790         2.40996
   C        1.80666         0.08703         1.29781
   O        0.83509        -0.45144         0.86149
   C        3.22005         0.06891         0.71134
   C        3.64241        -1.21650         0.07255
   C        4.52362        -1.18710        -0.99421
   C        4.96744        -2.37559        -1.57842
   C        4.47635        -3.56554        -1.02788
   N        3.63486        -3.59979        -0.01715
   C        3.22406        -2.46776         0.52447
   C        5.90240        -2.33692        -2.67256
   S        6.89749        -0.92256        -2.90045
   C        7.69332        -1.54421        -4.31885
   C        7.19712        -2.80367        -4.60714
   C        6.20661        -3.24403        -3.66305
   N        5.79496        -4.48761        -4.03434
   C        6.49125        -4.84980        -5.17257
   C        6.28403        -6.08834        -5.79717
   N        6.10553        -7.09633        -6.31508
   C        7.36033        -3.85189        -5.54782
   C        8.64753        -0.70534        -4.99053
   C        9.29065         0.31542        -4.28459
   C       10.10975         1.21590        -4.94321
   C       10.31793         1.00254        -6.30643
   N        9.74732         0.02152        -6.98110
   C        8.92842        -0.80002        -6.35997
   C       10.75789         2.36890        -4.22402
   C       10.99563         2.00552        -2.75659
   O       11.78887         1.22231        -2.33281
   O       10.15925         2.69775        -1.96446
   C        9.28177         3.53638        -2.70337
   C        9.92999         3.66471        -4.09737
   C        8.96040         4.02248        -5.22032
   C        7.65602         3.23565        -5.19700
   C        6.95215         3.28063        -3.84761
   C        7.85286         2.94903        -2.64550
   O        7.17101         3.50946        -1.52683
   C        6.32390         4.48384        -1.90535
   O        5.65685         5.09388        -1.12429
   C        6.35959         4.62203        -3.41777
   H        5.60360         3.20305         3.53981
   H        5.67097         4.83050         2.85456
   H        2.31443         2.97674         1.38832
   H        4.27284         4.26499         1.01789
   H        6.31166         2.83917         0.79137
   H        4.89514         2.26905        -0.06474
   H        5.95601         1.19694         2.59145
   H        6.00173         0.37362         1.03876
   H        4.19036        -0.42772         2.55473
   H        3.22605         1.41675         3.74144
   H        3.25449         0.86693        -0.03953
   H        4.87192        -0.24171        -1.38913
   H        4.79725        -4.52957        -1.39908
   H        2.52743        -2.56473         1.34477
   H        5.07488        -5.04023        -3.60160
   H        8.02906        -3.88442        -6.38367
   H        9.14912         0.37540        -3.21544
   H       10.97323         1.64454        -6.87972
   H        8.46047        -1.55579        -6.97386
   H       11.71888         2.56968        -4.70390
   H        9.25811         4.50209        -2.18549
   H       10.65949         4.48008        -4.02612
   H        9.45622         3.86193        -6.17860
   H        8.73763         5.08910        -5.14583
   H        7.84654         2.19390        -5.45293
   H        6.98433         3.63997        -5.95610
   H        6.14202         2.54232        -3.86206
   H        7.91834         1.87517        -2.45795
   H        7.00885         5.46105        -3.67383
   H        5.36712         4.82054        -3.81522
*
