# ORCA input file
# SCF done       -230.261246568109          0.000735215947
! CAM-B3LYP def2-SVP def2/J RIJCOSX Grid4 TightSCF
%maxcore 5000
%tddft
    Mode sTDDFT
    Ethresh 5.0
    maxcore 5000
end

%pal
  nprocs 6
  end
* xyz 0 1
   C       -0.51208        -1.29806         0.92291
   N       -1.06817        -0.56439        -0.07326
   C       -1.36547        -1.02440        -1.40619
   C       -0.10992        -1.08815        -2.27205
   C       -1.27494         0.77944         0.32766
   O       -1.72850         1.62859        -0.41000
   C       -0.81923         0.80649         1.69672
   C       -0.34040        -0.50121         2.02256
   C        0.14365        -0.47445         3.38762
   O        0.63378        -1.32320         4.09915
   N       -0.07834         0.85273         3.80065
   C        0.32001         1.29314         5.11484
   C        1.64558         2.05193         5.08635
   C       -0.65540         1.62319         2.80868
   C       -0.99226         2.98663         2.98974
   C       -1.66346         3.71446         2.05296
   C       -2.05298         5.07248         2.11058
   N       -1.66129         6.07101         2.98793
   C       -0.63675         6.03846         4.00390
   C        0.75979         5.88091         3.40829
   C       -2.27338         7.29853         2.68267
   O       -2.06913         8.32270         3.31274
   C       -3.12051         7.01731         1.55139
   C       -2.96148         5.65549         1.22413
   C       -3.82832         5.35718         0.09609
   O       -4.07166         4.33552        -0.50150
   N       -4.41831         6.60052        -0.21487
   C       -5.39283         6.72672        -1.27229
   C       -6.81863         6.73695        -0.72762
   C       -4.02066         7.59427         0.64395
   C       -4.45073         8.93049         0.54555
   C       -4.08935         9.88759         1.45296
   C       -4.49998        11.22669         1.32401
   N       -4.20486        12.21494         2.23768
   C       -3.42814        12.06148         3.44536
   C       -1.92874        12.02326         3.16405
   C       -4.72828        13.45563         1.85812
   O       -4.60424        14.47347         2.51627
   C       -5.39975        13.19633         0.60181
   C       -5.24955        11.82694         0.30292
   C       -5.89584        11.57460        -0.96924
   O       -6.03092        10.55474        -1.62172
   N       -6.38223        12.82330        -1.36820
   C       -7.13953        12.98610        -2.58693
   C       -8.64101        13.03393        -2.31896
   C       -6.10650        13.80707        -0.44344
   C       -6.47217        15.15428        -0.60515
   C       -6.23015        16.09890         0.35513
   C       -6.57510        17.45006         0.17665
   N       -6.36980        18.42732         1.12640
   C       -5.74961        18.24842         2.41839
   C       -4.23033        18.14849         2.31695
   C       -6.79710        19.68513         0.68851
   O       -6.72005        20.69933         1.35892
   C       -7.31099        19.44912        -0.64495
   C       -7.16701        18.07492        -0.92940
   C       -7.67851        17.83970        -2.26323
   O       -7.76923        16.82422        -2.93084
   N       -8.10651        19.09803        -2.70059
   C       -8.62734        19.29805        -4.03227
   C       -7.57046        19.87380        -4.97093
   C       -7.89329        20.07564        -1.75382
   C       -8.24184        21.42815        -1.93540
   C       -8.00573        22.37544        -0.98087
   C       -8.37082        23.72694        -1.15476
   N       -8.13390        24.70630        -0.21691
   C       -7.42641        24.53995         1.03075
   C       -5.91495        24.50246         0.82283
   C       -8.60861        25.96024        -0.62791
   O       -8.50961        26.96972         0.04106
   C       -9.19436        25.71344        -1.93017
   C       -9.02987        24.33451        -2.22562
   C       -9.60927        24.08744        -3.52209
   O       -9.70503        23.07885        -4.20038
   N      -10.08895        25.34325        -3.93476
   C      -10.80214        25.49289        -5.17942
   C      -12.31377        25.52735        -4.96557
   C       -9.85213        26.31764        -2.99369
   C      -10.23133        27.68978        -3.16330
   C      -10.00193        28.62513        -2.23815
   H       -0.28370        -2.33901         0.78553
   H       -2.07269        -0.30642        -1.83036
   H       -1.84022        -2.00817        -1.34784
   H        0.33996        -0.10133        -2.34777
   H       -0.36710        -1.43107        -3.27021
   H        0.61910        -1.77255        -1.84322
   H        0.43493         0.38468         5.71321
   H       -0.47272         1.90430         5.55647
   H        2.43072         1.40627         4.70104
   H        1.91454         2.36326         6.09215
   H        1.58178         2.93278         4.45147
   H       -0.71845         3.42371         3.93569
   H       -1.98320         3.21777         1.14401
   H       -0.85162         5.25566         4.73613
   H       -0.70738         7.00494         4.51373
   H        0.84163         4.96084         2.83383
   H        1.50080         5.87033         4.20348
   H        0.97382         6.71667         2.74648
   H       -5.25059         5.85707        -1.91955
   H       -5.19936         7.63731        -1.84443
   H       -7.01482         5.82225        -0.17297
   H       -7.52275         6.80497        -1.55165
   H       -6.97281         7.58848        -0.06911
   H       -5.08034         9.20405        -0.28889
   H       -3.47032         9.61439         2.29526
   H       -3.73874        11.15252         3.96632
   H       -3.66519        12.92994         4.06667
   H       -1.66455        11.14042         2.58823
   H       -1.38530        11.99406         4.10406
   H       -1.62721        12.91090         2.61262
   H       -6.90194        12.11900        -3.20939
   H       -6.81803        13.89536        -3.10005
   H       -8.96107        12.12687        -1.81124
   H       -9.17602        13.11616        -3.26053
   H       -8.89394        13.89221        -1.70148
   H       -6.95557        15.44826        -1.52580
   H       -5.75811        15.80406         1.28113
   H       -6.15607        17.35515         2.89883
   H       -6.02399        19.12845         3.00699
   H       -3.93587        17.24952         1.78230
   H       -3.80314        18.10828         3.31465
   H       -3.83055        19.01740         1.79917
   H       -9.49793        19.95685        -3.99187
   H       -8.93919        18.31153        -4.38647
   H       -7.25345        20.85834        -4.63619
   H       -7.98318        19.96575        -5.97126
   H       -6.70350        19.21796        -5.00788
   H       -8.71544        21.71613        -2.86285
   H       -7.52814        22.08778        -0.05526
   H       -7.76343        23.62627         1.52589
   H       -7.69361        25.40260         1.64738
   H       -5.63298        23.65603         0.20146
   H       -5.41794        24.40588         1.78362
   H       -5.57881        25.41937         0.34402
   H      -10.53792        24.62123        -5.78513
   H      -10.46034        26.39513        -5.69412
   H      -12.64097        24.60606        -4.48987
   H      -12.81996        25.62374        -5.92212
   H      -12.59893        26.36364        -4.33109
   H      -10.71917        27.95107        -4.09235
   H       -9.51740        28.38878        -1.30558
   H      -10.29623        29.64828        -2.39645
*
