# ORCA input file
# SCF done       -151.738593254973          0.000377284554
! CAM-B3LYP def2-SVP def2/J RIJCOSX Grid4 TightSCF
%maxcore 5000
%tddft
    Mode sTDDFT
    Ethresh 5.0
    maxcore 5000
end

%pal
  nprocs 6
  end
* xyz 0 1
   C        3.25132         7.39732        -9.00774
   N        3.12996         8.72033        -8.72242
   C        3.65694         9.80702        -9.50907
   C        2.83453        10.03657       -10.77444
   C        2.35127         8.92966        -7.55655
   O        2.10715        10.02754        -7.10163
   C        1.99941         7.59466        -7.13898
   C        2.57946         6.67106        -8.06427
   C        2.22737         5.33995        -7.62322
   O        2.46523         4.24047        -8.07060
   N        1.47320         5.54679        -6.44136
   C        0.85520         4.41247        -5.79875
   C       -0.65874         4.39438        -5.99152
   C        1.33340         6.88821        -6.15281
   C        0.67216         7.53308        -5.06336
   C        0.20682         7.00498        -3.91344
   C       -0.43537         7.74687        -2.85362
   C       -0.83675         9.07891        -2.98023
   C       -1.46802         9.72802        -1.93610
   N       -1.72771        11.13782        -2.11814
   O       -2.16666        11.48486        -3.19269
   O       -1.44683        11.88206        -1.20473
   C       -1.76274         9.08223        -0.72414
   C       -1.31386         7.76252        -0.59348
   C       -0.67842         7.11295        -1.62546
   C       -2.55191         9.67524         0.33313
   C       -3.60483        10.48828         0.13153
   C       -4.41226        11.05248         1.16498
   S       -5.86950        11.90675         0.74544
   C       -6.24615        12.25275         2.40585
   C       -5.25481        11.72501         3.24992
   C       -4.24246        11.05641         2.52484
   C       -5.14683        11.78204         4.69606
   O       -5.89745        12.28928         5.49644
   C       -7.45037        12.97379         2.60971
   C       -7.99714        13.37898         3.78138
   C       -9.22208        14.08512         3.86719
   S      -10.17557        14.49387         2.45384
   C      -11.39288        15.27223         3.41874
   C      -11.05844        15.20680         4.77838
   C       -9.84136        14.53767         5.00698
   C      -11.84999        15.75385         5.86597
   O      -11.57003        15.66677         7.03743
   C      -12.53879        15.85314         2.82964
   C      -12.75791        15.89116         1.48815
   C      -13.86560        16.43476         0.80068
   S      -13.67382        16.69460        -0.91259
   C      -15.21911        17.38001        -1.07161
   C      -15.90527        17.40380         0.12472
   C      -15.14401        16.84952         1.20992
   C      -15.75221        16.73899         2.47386
   C      -17.02859        17.20711         2.65281
   S      -17.85490        17.09829         4.20583
   C      -17.75841        17.79766         1.59178
   C      -17.21674        17.88671         0.34943
   H        3.81682         7.06512        -9.85893
   H        4.69928         9.59366        -9.76484
   H        3.61769        10.69519        -8.87250
   H        2.84158         9.14952       -11.40432
   H        3.24852        10.86817       -11.33767
   H        1.80523        10.27042       -10.51373
   H        1.12269         4.38580        -4.73887
   H        1.29524         3.53439        -6.28261
   H       -1.12338         5.27678        -5.55752
   H       -1.07811         3.50940        -5.52075
   H       -0.89413         4.36643        -7.05261
   H        0.61235         8.60236        -5.21876
   H        0.32320         5.95164        -3.70796
   H       -0.65533         9.63149        -3.88926
   H       -1.50566         7.24094         0.33225
   H       -0.36032         6.08927        -1.49070
   H       -2.30381         9.35855         1.33597
   H       -3.91966        10.73098        -0.87545
   H       -3.39784        10.59863         3.00861
   H       -4.22983        11.27300         5.05274
   H       -7.97995        13.21287         1.69272
   H       -7.50348        13.16820         4.71923
   H       -9.43809        14.39958         5.99425
   H      -12.76982        16.28456         5.54893
   H      -13.24168        16.30822         3.50837
   H      -11.97787        15.49429         0.84778
   H      -15.55758        17.73400        -2.02512
   H      -15.23245        16.26343         3.28946
   H      -16.86142        16.50458         4.86662
   H      -18.75605        18.15630         1.79287
   H      -17.76972        18.31240        -0.47343
*
