# ORCA input file
# SCF done       -219.776560577720          0.000875859796
! CAM-B3LYP def2-SVP def2/J RIJCOSX Grid4 TightSCF
%maxcore 5000
%tddft
    Mode sTDDFT
    Ethresh 5.0
    maxcore 5000
end

%pal
  nprocs 6
  end
* xyz 0 1
   C        2.88578       -13.44205        -2.36161
   C        2.35307       -12.79059        -3.42081
   C        2.61396       -11.39325        -3.41356
   C        3.34901       -11.01580        -2.30417
   S        3.71243       -12.37885        -1.29059
   C        3.74410        -9.70996        -1.94689
   C        3.73132        -8.57886        -2.74847
   C        3.37743        -8.42533        -4.16652
   O        3.75967        -7.43130        -4.75478
   N        2.56745        -9.33737        -4.83437
   C        2.03738       -10.57739        -4.48545
   O        1.12701       -11.03594        -5.14969
   C        2.10598        -8.85606        -6.14441
   C        0.85677        -7.99599        -6.00842
   C        4.21262        -7.44376        -2.06350
   C        4.58357        -7.67897        -0.76297
   S        4.35569        -9.36109        -0.35973
   C        5.08229        -6.73323         0.17200
   C        5.44221        -7.02808         1.44117
   C        5.91567        -6.08100         2.38400
   S        6.10963        -4.39978         1.94819
   C        6.75126        -4.00880         3.51867
   N        7.10404        -2.71571         3.81427
   C        6.55542        -2.06910         4.99459
   C        6.81347        -5.11999         4.33844
   C        6.32734        -6.28707         3.68778
   C        6.41925        -7.63014         4.30395
   O        7.38727        -8.05680         4.87799
   O        5.29061        -8.33908         4.13411
   C        5.30066        -9.65309         4.67396
   C        7.32935        -5.08996         5.69441
   C        6.76254        -5.76245         6.70725
   C        7.21430        -5.81206         8.06167
   S        6.43641        -6.97208         9.12248
   C        7.47395        -6.55796        10.44770
   N        7.31909        -7.16841        11.64443
   C        6.20721        -8.04923        11.88947
   C        8.38585        -5.56525        10.09282
   C        8.20540        -5.14906         8.73832
   C        9.07993        -4.09589         8.16538
   O       10.26724        -4.19279         8.00451
   O        8.38789        -2.97344         7.89747
   C        9.15252        -1.88371         7.39954
   C        9.34876        -4.94458        10.95380
   C        9.83351        -5.42583        12.11668
   C       10.71974        -4.70605        12.96569
   S       11.44782        -3.20133        12.46752
   C       12.34623        -3.08424        13.95790
   N       13.17768        -2.01493        14.17910
   C       13.02973        -1.17821        15.35735
   C       12.08166        -4.14254        14.80548
   C       11.15372        -5.06505        14.22688
   C       10.75183        -6.35225        14.81895
   O        9.64811        -6.84140        14.71554
   O       11.77306        -6.94455        15.44989
   C       11.52762        -8.18183        16.10084
   C       12.68716        -4.24120        16.11022
   C       12.09889        -4.74730        17.20831
   C       12.72977        -4.82806        18.48472
   C       12.21937        -5.37812        19.63179
   C       13.07440        -5.29145        20.75164
   C       14.27001        -4.66316        20.44287
   S       14.33085        -4.19649        18.77064
   C       15.35897        -4.43239        21.30578
   C       15.37229        -4.52672        22.68939
   C       14.28758        -4.83611        23.62839
   O       14.42879        -4.53640        24.79940
   N       13.14070        -5.52297        23.23991
   C       12.64147        -5.92120        22.00441
   O       11.75463        -6.75335        21.96561
   C       12.33282        -5.99401        24.37444
   C       12.84703        -7.32613        24.90273
   C       16.63439        -4.18873        23.22910
   C       17.57490        -3.84943        22.29661
   S       16.89942        -3.92473        20.69244
   C       18.94991        -3.45993        22.46620
   C       19.58034        -3.38094        23.63527
   H        2.84484       -14.48841        -2.13426
   H        1.78683       -13.25872        -4.20487
   H        1.89403        -9.73044        -6.76029
   H        2.91959        -8.27778        -6.58386
   H        0.05155        -8.57441        -5.56211
   H        0.54143        -7.65550        -6.99066
   H        1.06373        -7.12783        -5.38689
   H        4.28024        -6.48057        -2.53565
   H        5.16309        -5.71579        -0.18914
   H        5.35290        -8.04658         1.79363
   H        7.06193        -2.11372         3.00064
   H        6.68506        -2.71358         5.86038
   H        5.48829        -1.84449         4.88166
   H        7.09503        -1.13776         5.15502
   H        5.46862        -9.61768         5.75240
   H        6.09541       -10.24520         4.21560
   H        4.32646       -10.07993         4.45056
   H        8.21735        -4.49568         5.84810
   H        5.86942        -6.34361         6.51263
   H        7.69684        -6.68524        12.44761
   H        6.19836        -8.83678        11.13415
   H        5.24549        -7.52467        11.84753
   H        6.32777        -8.49948        12.87140
   H       10.06535        -1.76531         7.98723
   H        8.52228        -1.00243         7.48689
   H        9.42647        -2.05831         6.35672
   H        9.71996        -3.98546        10.61217
   H        9.57269        -6.40870        12.47472
   H       13.33008        -1.46593        13.34228
   H       14.00092        -0.75376        15.61101
   H       12.67677        -1.77884        16.19118
   H       12.31979        -0.36051        15.19055
   H       12.17172        -8.93941        15.65425
   H       10.47961        -8.46475        15.98364
   H       11.77214        -8.06400        17.15726
   H       13.69182        -3.84229        16.18903
   H       11.08229        -5.11422        17.17173
   H       11.25120        -5.84186        19.69015
   H       11.30552        -6.09998        24.02509
   H       12.38667        -5.23062        25.15144
   H       12.80023        -8.08135        24.12197
   H       12.23197        -7.64722        25.73872
   H       13.87477        -7.22441        25.24366
   H       16.81114        -4.20113        24.28855
   H       19.47494        -3.22260        21.55010
   H       19.09139        -3.60953        24.56583
   H       20.61190        -3.08210        23.69301
*
