# ORCA input file
# SCF done       -143.817692738360          0.000746326435
! CAM-B3LYP def2-SVP def2/J RIJCOSX Grid4 TightSCF
%maxcore 5000
%tddft
    Mode sTDDFT
    Ethresh 5.0
    maxcore 5000
end

%pal
  nprocs 6
  end
* xyz 0 1
   C        3.91877        -3.04424        -0.70402
   S        3.17553        -4.20789         0.29598
   C        1.96421        -4.58540        -0.89019
   C        2.15557        -3.80478        -2.03903
   C        3.28341        -2.91908        -1.92072
   C        3.61735        -2.05421        -2.98585
   C        2.85715        -2.06709        -4.12582
   C        3.17321        -1.20484        -5.20135
   N        3.44420        -0.50113        -6.06403
   C        1.73302        -2.94936        -4.24491
   C        0.96780        -2.93972        -5.43187
   N        0.33094        -2.94987        -6.38511
   C        1.39414        -3.79954        -3.21893
   C        0.95480        -5.54694        -0.66053
   C        0.79275        -6.23982         0.49515
   C       -0.23573        -7.18954         0.71004
   O       -1.11921        -7.49701        -0.26764
   C       -1.98938        -8.40949         0.22750
   C       -1.65570        -8.69369         1.54845
   C       -0.53940        -7.92054         1.85283
   C       -3.01392        -8.89725        -0.61738
   C       -3.98566        -9.76257        -0.22252
   C       -4.99950       -10.26841        -1.05829
   S       -5.07795        -9.89764        -2.75754
   C       -6.49344       -10.86264        -3.00166
   C       -6.90785       -11.45400        -1.79874
   C       -6.05889       -11.11827        -0.69609
   C       -6.34861       -11.63191         0.57877
   C       -7.44070       -12.45016         0.75816
   C       -7.73357       -12.96079         2.04284
   N       -7.94736       -13.36453         3.09385
   C       -8.28376       -12.78416        -0.34484
   C       -9.40828       -13.62343        -0.17829
   N      -10.33487       -14.29505        -0.11616
   C       -8.01594       -12.29111        -1.60018
   C       -7.07297       -10.98528        -4.28469
   O       -8.17123       -11.75762        -4.46329
   C       -8.50447       -11.70987        -5.77670
   C       -7.60518       -10.89076        -6.44867
   C       -6.69480       -10.42904        -5.50124
   C       -9.61839       -12.43708        -6.25930
   C      -10.42720       -13.20127        -5.47762
   C      -11.53041       -13.94266        -5.94966
   S      -11.96144       -13.96440        -7.62937
   C      -13.32706       -14.99254        -7.37796
   C      -13.43034       -15.35083        -6.03123
   C      -12.41766       -14.74410        -5.21197
   C      -12.39721       -14.99132        -3.82728
   C      -13.32968       -15.83391        -3.27156
   C      -13.34869       -16.09539        -1.88129
   N      -13.39337       -16.31597        -0.75819
   C      -14.29883       -16.48689        -4.09708
   C      -15.21735       -17.39070        -3.51466
   N      -15.97534       -18.12855        -3.07399
   C      -14.34262       -16.25182        -5.44858
   C      -14.14282       -15.31962        -8.51377
   C      -15.43467       -15.64737        -8.49839
   H        4.77932        -2.50938        -0.35533
   H        4.46360        -1.38997        -2.89566
   H        0.54386        -4.45553        -3.32787
   H        0.26316        -5.72762        -1.47141
   H        1.46190        -6.07614         1.32811
   H       -2.15964        -9.37934         2.19795
   H       -0.00802        -7.88283         2.78194
   H       -2.99973        -8.53529        -1.63667
   H       -4.00266       -10.09809         0.80420
   H       -5.72310       -11.38801         1.42377
   H       -8.65699       -12.54545        -2.42747
   H       -7.62120       -10.66656        -7.49550
   H       -5.86071        -9.77547        -5.65748
   H       -9.80573       -12.35849        -7.32076
   H      -10.22600       -13.25958        -4.41717
   H      -11.65494       -14.53090        -3.19295
   H      -15.05603       -16.77942        -6.06068
   H      -13.63436       -15.23113        -9.46645
   H      -16.02046       -15.67502        -7.59708
   H      -15.95633       -15.86653        -9.41327
*
