# ORCA input file
# SCF done       -166.127054790233          0.000710469919
! CAM-B3LYP def2-SVP def2/J RIJCOSX Grid4 TightSCF
%maxcore 5000
%tddft
    Mode sTDDFT
    Ethresh 5.0
    maxcore 5000
end

%pal
  nprocs 6
  end
* xyz 0 1
   C        3.72040        -0.58541        -3.23480
   N        2.94771        -1.62101        -3.10489
   C        2.26546        -1.42204        -1.94059
   C        2.66811        -0.15036        -1.31109
   C        1.92066         0.05027        -0.05761
   O        1.98700         0.96898         0.73015
   C        1.06548        -1.15065         0.00958
   C        1.31587        -2.02227        -1.16381
   N        0.53093        -3.13046        -1.10780
   C       -0.16701        -3.00145        -0.01183
   C        0.11580        -1.78514         0.73656
   C        3.61023         0.39745        -2.14680
   C        4.34548         1.63286        -2.04622
   C        5.26775         2.01468        -3.02160
   C        5.95765         3.20845        -2.90966
   N        6.96731         3.48470        -3.89972
   O        6.86631         2.92339        -4.96969
   O        7.87551         4.22656        -3.58967
   C        5.75001         4.09011        -1.83281
   C        4.83751         3.67805        -0.85128
   C        4.15592         2.48840        -0.94769
   C        6.36604         5.39201        -1.77175
   C        6.76156         5.98375        -0.62316
   C        7.30709         7.29690        -0.60441
   N        7.85550         7.89037         0.50752
   C        7.93951         7.32914         1.83346
   C        6.61417         7.44658         2.58329
   C        8.31447         9.19735         0.23828
   O        8.84419         9.90838         1.06653
   C        8.00971         9.39145        -1.16013
   C        7.39628         8.21255        -1.64873
   C        7.08300         8.43426        -3.04173
   O        6.56399         7.72730        -3.88125
   N        7.52689         9.74866        -3.30326
   C        7.41269        10.27668        -4.64311
   C        6.06020        10.94248        -4.88492
   C        8.06665        10.33230        -2.18461
   C        8.59402        11.64456        -2.00566
   C        8.40789        12.73051        -2.78366
   C        8.94741        14.03328        -2.49156
   C        9.99027        14.29299        -1.64138
   S       10.38309        15.95760        -1.54913
   C        9.14443        16.35438        -2.64965
   C        8.45483        15.25189        -3.08400
   C        7.32434        15.32629        -4.00429
   O        6.65868        14.41037        -4.41053
   O        7.07828        16.62868        -4.37410
   C        6.02899        16.86907        -5.18249
   C        5.72590        18.11382        -5.59191
   C        4.60220        18.35871        -6.43196
   N        3.78940        17.39369        -6.85034
   C        2.85862        18.00337        -7.60086
   C        3.10334        19.47064        -7.66521
   C        2.06832        20.13153        -8.49246
   O        1.95658        21.30404        -8.76050
   C        1.21849        18.99862        -8.89828
   C        1.73552        17.72792        -8.33503
   N        0.94966        16.68814        -8.70848
   C        0.00561        17.21877        -9.44512
   C        0.11196        18.65516        -9.60507
   C        4.20845        19.68483        -6.92131
   H        4.36685        -0.50769        -4.09139
   H       -0.87872        -3.75696         0.27301
   H       -0.35214        -1.49806         1.65737
   H        5.47952         1.38889        -3.87478
   H        4.64060         4.33598        -0.01904
   H        3.45531         2.21076        -0.17481
   H        6.50530         5.92069        -2.70656
   H        6.71243         5.44334         0.31178
   H        8.70694         7.90537         2.35805
   H        8.26292         6.28653         1.77044
   H        6.33497         8.49297         2.67851
   H        6.71407         7.02159         3.57816
   H        5.81833         6.92420         2.05694
   H        7.50719         9.41891        -5.31686
   H        8.24000        10.96403        -4.82930
   H        5.26564        10.21396        -4.74487
   H        6.01461        11.31528        -5.90408
   H        5.89334        11.77513        -4.20650
   H        9.14094        11.74175        -1.07644
   H        7.77656        12.69103        -3.65492
   H       10.56443        13.58803        -1.07472
   H        8.97603        17.37562        -2.92725
   H        5.43438        16.01392        -5.48587
   H        6.32801        18.95691        -5.28689
   H       -0.76152        16.59698        -9.87373
   H       -0.56035        19.27159       -10.16818
   H        4.72519        20.59854        -6.70316
*
