# ORCA input file
# SCF done       -169.269460675378          0.000964928385
! CAM-B3LYP def2-SVP def2/J RIJCOSX Grid4 TightSCF
%maxcore 5000
%tddft
    Mode sTDDFT
    Ethresh 5.0
    maxcore 5000
end

%pal
  nprocs 6
  end
* xyz 0 1
   C        0.71546         0.64551        -2.60944
   C       -0.20272         1.64349        -2.72808
   S       -0.30175         2.57410        -1.27958
   C        0.92370         1.60305        -0.49501
  Cl        1.41892         1.92199         1.09219
   C        1.35977         0.61979        -1.33096
   C        2.34378        -0.47222        -1.27894
   O        3.11281        -0.72641        -0.38848
   C        2.24344        -1.12415        -2.62904
   C        1.23877        -0.43056        -3.42453
   C        0.79732        -0.73896        -4.68363
   C       -0.20952         0.02304        -5.31447
   N       -1.02392         0.63237        -5.84507
   C        1.24682        -1.81047        -5.48116
   N        1.56313        -2.66325        -6.18187
   C        3.05218        -2.11368        -3.08788
   C        3.94431        -2.90884        -2.32085
   S        5.29105        -3.74703        -3.10494
   C        5.62589        -4.41014        -1.51845
   N        4.76321        -4.00543        -0.61509
   N        3.86034        -3.19433        -1.05257
   C        6.70937        -5.29187        -1.27644
   C        6.92899        -5.83395        -0.05141
   C        7.99599        -6.72875         0.20865
   N        8.23066        -7.30475         1.43597
   C        7.50317        -7.05389         2.65698
   C        7.89955        -5.72325         3.29136
   C        9.33847        -8.16678         1.41130
   O        9.72932        -8.78679         2.38151
   C        9.80871        -8.10750         0.04473
   C        8.96627        -7.21541        -0.66545
   C        9.42886        -7.16200        -2.03455
   O        9.03474        -6.54825        -3.00639
   N       10.52661        -8.03869        -2.06477
   C       11.29520        -8.22513        -3.27152
   C       12.58797        -7.41280        -3.25346
   C       10.76710        -8.60800        -0.83540
   C       11.80664        -9.54424        -0.59494
   C       12.00890       -10.10817         0.61990
   C       13.01509       -11.08347         0.93155
   C       12.95858       -11.75123         2.17136
   N       13.79750       -12.67894         2.54929
   C       14.79235       -13.03121         1.72560
   C       14.96669       -12.40676         0.48156
   C       14.07373       -11.43873         0.08278
   C       15.66159       -14.10310         2.13862
   C       15.42079       -14.84458         3.24199
   C       16.22546       -15.91181         3.72357
   C       17.06634       -16.76351         3.07532
   C       18.04533       -17.53679         3.90801
   O       18.03831       -17.63516         5.11108
   C       19.00418       -18.08265         2.94198
   C       20.16823       -18.78996         2.97389
   S       20.75714       -19.07239         1.35254
   C       19.41592       -18.24061         0.65253
   C       18.57380       -17.77061         1.61103
   C       17.30786       -17.05972         1.67454
   C       16.46777       -16.91394         0.60179
   C       16.86139       -17.30233        -0.69599
   N       17.16768       -17.58473        -1.76513
   C       15.14652       -16.43248         0.64861
   N       14.05921       -16.06616         0.61171
  Cl       21.00747       -19.36262         4.32921
   H       -0.82460         1.90105        -3.56229
   H        3.04194        -2.34922        -4.14460
   H        7.35650        -5.52367        -2.11077
   H        6.25367        -5.57825         0.75181
   H        7.75902        -7.87434         3.33340
   H        6.42912        -7.08330         2.45524
   H        8.96368        -5.72063         3.51525
   H        7.34945        -5.58056         4.21717
   H        7.68216        -4.89222         2.62431
   H       10.65843        -7.87973        -4.09085
   H       11.50278        -9.28941        -3.41403
   H       12.35855        -6.35392        -3.16325
   H       13.13538        -7.57159        -4.17850
   H       13.22045        -7.70077        -2.41631
   H       12.42927        -9.81449        -1.43523
   H       11.35092        -9.83654         1.43524
   H       12.17438       -11.50719         2.87689
   H       15.78540       -12.69989        -0.15833
   H       14.20083       -10.95186        -0.87271
   H       16.53305       -14.28304         1.52285
   H       14.57861       -14.54951         3.85407
   H       16.21334       -16.05350         4.80158
   H       19.35240       -18.15320        -0.41379
*
