# ORCA input file
# SCF done       -167.279648174652          0.000605500126
! CAM-B3LYP def2-SVP def2/J RIJCOSX Grid4 TightSCF
%maxcore 5000
%tddft
    Mode sTDDFT
    Ethresh 5.0
    maxcore 5000
end

%pal
  nprocs 6
  end
* xyz 0 1
   C        8.71975         1.33452         3.39321
   C        9.66144         1.79922         4.25960
   S       10.13089         3.40992         3.86281
   C        9.04749         3.45808         2.48969
  Cl        8.93237         4.82996         1.50621
   C        8.36507         2.28455         2.37981
   C        7.37179         1.70129         1.47100
   O        6.93369         2.16027         0.44651
   C        7.05674         0.36483         2.07680
   C        7.98486         0.10966         3.17080
   C        8.21793        -1.07871         3.80680
   C        9.17824        -1.18743         4.83524
   N        9.96032        -1.30157         5.66688
   C        7.62804        -2.31272         3.46942
   N        7.21879        -3.35604         3.21726
   C        6.09915        -0.47260         1.62585
   C        5.24373        -0.18396         0.50501
   C        5.07548        -1.10347        -0.53003
   N        4.25409        -0.91518        -1.59505
   C        3.58543         0.17942        -1.75257
   C        3.64970         1.20288        -0.77628
   C        4.47899         1.00096         0.38468
   N        4.28430         2.03261         1.18646
   O        3.41995         2.82147         0.56033
   N        3.02284         2.35190        -0.61321
   C        5.83628        -2.33920        -0.51355
   N        5.30983        -3.53888        -0.89830
   C        3.94288        -3.80441        -1.28089
   C        3.00645        -3.75472        -0.07724
   C        6.23114        -4.59143        -0.73058
   O        5.96922        -5.75190        -0.97448
   C        7.42646        -3.94238        -0.24995
   C        7.15472        -2.55023        -0.12169
   C        8.40058        -1.90524         0.25543
   O        8.70279        -0.74260         0.44632
   N        9.32397        -2.95718         0.36932
   C       10.69983        -2.70769         0.73073
   C       11.03196        -3.18134         2.14299
   C        8.76249        -4.17043         0.05900
   C        9.48205        -5.39552         0.03952
   C        8.88683        -6.58504        -0.21710
   C        9.61117        -7.80699        -0.26277
   S        8.78673        -9.32562        -0.65877
   C       10.28046       -10.12029        -0.52171
   C       11.29741        -9.23193        -0.21188
   N       10.87917        -7.95223        -0.06699
   C       12.66223        -9.60979        -0.00164
   C       13.72647        -8.78558         0.14151
   C       14.98232        -9.29518         0.78122
   O       15.29856       -10.44920         0.93195
   C       15.67571        -8.07712         1.22281
   C       16.79595        -7.76526         1.93395
   S       16.97720        -6.03119         2.06429
   C       15.54400        -5.74729         1.14462
   C       14.96106        -6.91716         0.77149
   C       13.83295        -7.34569        -0.02995
   C       13.15685        -6.56462        -0.92437
   C       13.28944        -5.16477        -0.93361
   N       13.32535        -4.01704        -0.90353
   C       12.32124        -7.07244        -1.94237
   N       11.72404        -7.43864        -2.85117
  Cl       17.91978        -8.82242         2.63201
   H       10.10824         1.31251         5.10398
   H        6.00110        -1.46164         2.05517
   H        2.96584         0.27165        -2.63211
   H        3.94395        -4.81026        -1.70897
   H        3.63719        -3.08008        -2.03740
   H        3.33001        -4.46313         0.68188
   H        1.99765        -4.01203        -0.38667
   H        2.99132        -2.75797         0.35907
   H       10.83355        -1.62423         0.66390
   H       11.36547        -3.18266         0.00359
   H       10.44084        -2.64423         2.88030
   H       12.08307        -2.99664         2.34583
   H       10.83437        -4.24404         2.25989
   H       10.54450        -5.36964         0.23149
   H        7.82547        -6.63893        -0.41614
   H       10.36904       -11.17647        -0.68013
   H       12.84668       -10.66720         0.14587
   H       15.22966        -4.74061         0.95231
*
