# ORCA input file
# SCF done       -191.673275176459          0.000685426678
! CAM-B3LYP def2-SVP def2/J RIJCOSX Grid4 TightSCF
%maxcore 5000
%tddft
    Mode sTDDFT
    Ethresh 5.0
    maxcore 5000
end

%pal
  nprocs 6
  end
* xyz 0 1
   C        2.07666         1.65056         1.83007
   C        1.03650         2.48749         2.09490
   S       -0.46466         1.63850         2.08480
   C        0.31959         0.12130         1.71366
  Cl       -0.56724        -1.30902         1.52811
   C        1.66843         0.29502         1.61013
   C        2.83456        -0.54692         1.32787
   O        2.85394        -1.73316         1.10067
   C        4.00733         0.38332         1.45194
   C        3.51463         1.73768         1.69811
   C        4.23922         2.89578         1.73747
   C        3.61730         4.14271         1.96668
   N        3.12401         5.16010         2.15819
   C        5.63126         2.99697         1.53516
   N        6.75617         3.14319         1.36202
   C        5.30010        -0.00441         1.53320
   C        5.82235        -1.32796         1.26641
   C        6.81511        -1.84004         2.09761
   C        7.32615        -3.11142         1.89249
   N        8.36295        -3.54835         2.79058
   O        8.45708        -2.97498         3.85409
   O        9.08926        -4.45623         2.43592
   C        6.88861        -3.91455         0.82078
   C        5.93222        -3.35695        -0.03757
   C        5.40730        -2.10321         0.17530
   C        7.36633        -5.26612         0.62663
   C        7.54117        -5.81665        -0.59141
   C        8.02751        -7.11645        -0.91805
   N        8.67160        -8.03545        -0.13173
   C        9.06924        -7.93216         1.25344
   C        7.97682        -8.43942         2.19304
   C        9.00477        -9.20151        -0.86051
   O        9.59252       -10.14275        -0.37644
   C        8.51038        -8.94909        -2.19724
   C        7.93324        -7.65829        -2.19802
   C        7.47496        -7.36469        -3.53737
   O        6.91926        -6.39789        -4.01474
   N        7.83680        -8.50793        -4.27718
   C        7.50317        -8.63104        -5.67509
   C        6.29265        -9.53500        -5.89518
   C        8.44507        -9.46146        -3.49094
   C        8.92499       -10.69910        -3.98291
   C        9.41287       -11.68404        -3.18447
   C        9.91962       -12.90438        -3.68761
   C       10.32808       -14.01551        -2.97770
   C       10.34124       -14.43674        -1.56796
   O        9.95921       -13.87970        -0.57468
   N       10.88353       -15.72578        -1.59692
   C       11.08231       -16.51827        -0.40891
   C       11.18106       -16.18324        -2.86551
   O       11.60911       -17.28470        -3.12152
   C       10.84526       -15.06266        -3.76539
   C       10.84771       -14.80283        -5.12101
   S       10.15292       -13.21501        -5.39800
   C       11.21039       -15.58685        -6.24354
   C       12.07903       -16.62503        -6.35990
   C       11.94477       -17.50369        -7.57361
   O       11.28676       -17.26214        -8.55592
   C       12.74010       -18.69029        -7.25345
   C       12.99907       -19.90651        -7.81309
   S       14.07283       -20.83262        -6.79219
   C       14.17064       -19.56065        -5.62877
   C       13.41468       -18.49560        -6.00290
   C       13.11192       -17.16904        -5.50070
   C       13.83372       -16.52922        -4.52995
   C       14.85508       -17.18567        -3.81188
   N       15.68694       -17.69907        -3.21194
   C       13.67839       -15.17618        -4.18486
   N       13.58723       -14.06988        -3.89098
  Cl       12.41698       -20.52877        -9.27640
   H        1.04607         3.53954         2.30060
   H        6.03432         0.71518         1.87567
   H        7.19061        -1.26096         2.92905
   H        5.57636        -3.94613        -0.86799
   H        4.68400        -1.70519        -0.51718
   H        7.59306        -5.82436         1.51970
   H        7.30470        -5.23610        -1.47499
   H        9.35447        -6.90264         1.47781
   H        9.95040        -8.57141         1.36363
   H        7.03499        -7.91994         2.02663
   H        8.28415        -8.29074         3.22427
   H        7.81519        -9.50181         2.02785
   H        8.37051        -9.00128        -6.22925
   H        7.27288        -7.61835        -6.01799
   H        6.48272       -10.53972        -5.52402
   H        6.06363        -9.59102        -6.95563
   H        5.42823        -9.13110        -5.37395
   H        8.89863       -10.86080        -5.05319
   H        9.43579       -11.57023        -2.10733
   H       10.62079       -15.98871         0.42260
   H       12.14836       -16.65027        -0.21724
   H       10.62242       -17.49829        -0.53755
   H       10.66682       -15.35889        -7.15748
   H       14.76483       -19.69614        -4.74716
*
