# ORCA input file
# SCF done       -197.366160522498          0.000458518491
! CAM-B3LYP def2-SVP def2/J RIJCOSX Grid4 TightSCF
%maxcore 5000
%tddft
    Mode sTDDFT
    Ethresh 5.0
    maxcore 5000
end

%pal
  nprocs 6
  end
* xyz 0 1
   C        0.65345         0.14833        -0.19546
   C       -0.57018         0.54627        -0.64019
   S       -1.55607        -0.80876        -1.04723
   C       -0.30161        -1.94258        -0.60243
  Cl       -0.52344        -3.61236        -0.73659
   C        0.80829        -1.27867        -0.17200
   C        2.14010        -1.62202         0.32283
   O        2.60890        -2.69713         0.61457
   C        2.82475        -0.30245         0.50057
   C        1.87492         0.77466         0.26816
   C        2.07207         2.11567         0.44377
   C        1.05830         3.05675         0.16422
   N        0.24187         3.83065        -0.05815
   C        3.26616         2.67991         0.93622
   N        4.21662         3.17008         1.35212
   C        4.13919        -0.26659         0.81675
   C        4.88714        -1.48028         0.75179
   C        5.64586        -2.19627         1.59017
   C        5.81132        -1.79327         3.02675
   C        4.50505        -1.98391         3.80148
   C        6.18895        -3.43815         1.02572
   C        7.05579        -4.35519         1.83802
   C        6.29660        -5.12208         2.92364
   C        5.91106        -3.66073        -0.27359
   S        5.10433        -2.16684        -0.92008
   O        3.93044        -2.37598        -1.71340
   O        6.11194        -1.31599        -1.49935
   C        6.13567        -4.80885        -1.09302
   N        6.78483        -4.79497        -2.29952
   C        7.34957        -3.65865        -2.99064
   C        6.40669        -3.16151        -4.08288
   C        6.83993        -6.07937        -2.87561
   O        7.40110        -6.31958        -3.92893
   C        6.13506        -6.92158        -1.94323
   C        5.71470        -6.11184        -0.85331
   C        4.92068        -6.94101         0.03247
   O        4.33571        -6.70675         1.06789
   N        4.94046        -8.21003        -0.57270
   C        4.22986        -9.32930         0.00004
   C        2.90631        -9.59075        -0.71443
   C        5.65540        -8.21624        -1.74575
   C        5.84339        -9.36374        -2.54766
   C        6.63902        -9.36159        -3.65475
   C        6.81220       -10.51516        -4.43285
   C        7.61787       -10.75953        -5.50833
   C        8.50906        -9.70285        -6.09023
   C        7.70852        -8.63675        -6.84793
   C        7.51107       -12.08943        -6.05661
   C        8.29390       -12.54484        -7.25229
   C        7.66534       -12.06534        -8.56349
   C        6.66620       -12.93890        -5.40363
   S        5.95578       -12.03825        -4.00036
   O        6.39582       -12.48257        -2.70289
   O        4.53118       -11.95309        -4.18231
   C        6.11254       -14.15808        -5.84093
   C        5.49131       -15.09085        -5.06805
   C        4.46230       -16.00059        -5.65935
   O        4.25503       -16.18805        -6.83422
   C        3.75828       -16.54467        -4.49109
   C        2.67252       -17.33387        -4.25306
   S        2.43544       -17.54975        -2.53510
   C        3.81451       -16.57979        -2.15681
   C        4.40845       -16.11495        -3.28550
   C        5.56692       -15.31857        -3.64005
   C        6.64773       -15.06799        -2.84054
   C        6.65174       -15.40835        -1.47419
   N        6.65074       -15.69459        -0.36336
   C        7.84640       -14.52241        -3.34355
   N        8.84179       -14.14538        -3.77247
  Cl        1.63659       -18.05402        -5.38258
   H       -0.95910         1.53819        -0.76052
   H        4.66004         0.66063         1.02461
   H        6.08741        -0.73604         3.05934
   H        6.60834        -2.36612         3.49554
   H        3.73532        -1.32549         3.40693
   H        4.65619        -1.75228         4.85289
   H        4.15053        -3.00703         3.71106
   H        7.85602        -3.76437         2.29292
   H        7.51452        -5.07667         1.15994
   H        5.95829        -4.46914         3.72048
   H        6.95329        -5.87431         3.35381
   H        5.43412        -5.62124         2.49288
   H        8.28761        -3.99552        -3.44297
   H        7.54923        -2.86218        -2.27332
   H        6.23179        -3.94973        -4.81139
   H        6.85261        -2.30759        -4.58363
   H        5.45785        -2.85224        -3.65164
   H        4.03764        -9.06074         1.04274
   H        4.86670       -10.21750        -0.02840
   H        2.28623        -8.69776        -0.68606
   H        2.37714       -10.39771        -0.21538
   H        3.06791        -9.87281        -1.75234
   H        5.35399       -10.28146        -2.25997
   H        7.14767        -8.45069        -3.94486
   H        9.23666       -10.15227        -6.76362
   H        9.05326        -9.21432        -5.28014
   H        7.04261        -9.09311        -7.57623
   H        8.39217        -7.97174        -7.36914
   H        7.11184        -8.04091        -6.16480
   H        8.33427       -13.63415        -7.24745
   H        9.31931       -12.17986        -7.18173
   H        6.63142       -12.39429        -8.63263
   H        8.21569       -12.47691        -9.40565
   H        7.68671       -10.98229        -8.63511
   H        6.03725       -14.31576        -6.91362
   H        4.08170       -16.41307        -1.13227
*
