# ORCA input file
# SCF done       -178.982247322482          0.000553995248
! CAM-B3LYP def2-SVP def2/J RIJCOSX Grid4 TightSCF
%maxcore 5000
%tddft
    Mode sTDDFT
    Ethresh 5.0
    maxcore 5000
end

%pal
  nprocs 6
  end
* xyz 0 1
   C       -2.59142         1.53583        -6.08531
   C       -3.36355         2.65737        -6.22607
   C       -3.30406         3.52560        -7.33420
   N       -3.27187         4.29350        -8.18748
   C       -4.35684         3.04371        -5.30131
   N       -5.20869         3.36951        -4.60451
   C       -1.78706         0.93093        -7.13999
   C       -1.56308        -0.43801        -6.80897
   C       -0.87202        -1.27119        -7.64083
   C       -0.35531        -0.76177        -8.85359
   C       -0.56309         0.60959        -9.18202
   C       -1.29024         1.44770        -8.30615
   C       -0.03510         1.10592       -10.39131
   C        0.66376         0.28905       -11.23767
   C        0.86758        -1.06074       -10.91388
   C        0.36806        -1.57504        -9.74821
   C       -2.15882        -0.72905        -5.49101
   O       -2.21747        -1.78871        -4.91628
   C       -2.61694         0.59851        -4.97690
   C       -2.79133         0.77717        -3.64082
   C       -2.81130         2.01043        -2.94272
   O       -2.45148         3.15085        -3.56814
   C       -2.55982         4.16748        -2.68836
   C       -2.97065         3.69120        -1.46096
   C       -3.13068         2.29778        -1.60987
   C       -3.56082         1.31928        -0.59604
   O       -3.61878         0.13407        -0.82941
   C       -3.91460         1.90592         0.74438
   C       -2.31688         5.47084        -3.19923
   S       -1.98037         5.63552        -4.88806
   C       -1.95054         7.34894        -4.75826
   C       -2.18013         7.77127        -3.45251
   C       -2.37766         6.69698        -2.54530
   O       -2.66223         6.72520        -1.23472
   C       -2.46670         7.93005        -0.49794
   C       -0.98996         8.20255        -0.23600
   O       -2.24642         9.08984        -3.12343
   N       -1.04967         9.89680        -3.37487
   O       -1.24231        11.03355        -3.19643
   O       -0.08325         9.28196        -3.64576
   C       -1.76503         8.17522        -5.89737
   S       -1.56821         7.53369        -7.51098
   C       -1.50822         9.22325        -8.02254
   N       -1.62360        10.04962        -7.02372
   N       -1.75926         9.48385        -5.86242
   C       -1.36602         9.57900        -9.39069
   C       -1.43854        10.85366        -9.84413
   C       -1.31864        11.13691       -11.22977
   C       -1.45799        12.36673       -11.79665
   C       -1.36886        12.68358       -13.21341
   C       -0.94051        11.85177       -14.21446
   C       -0.86215        12.22487       -15.57351
   N       -0.77168        12.46146       -16.69310
   C       -0.49543        10.52331       -14.04718
   N       -0.10912         9.44291       -13.99851
   C       -1.78074        14.07132       -13.38416
   C       -2.04062        14.63305       -12.10128
   C       -1.82048        13.61362       -11.06122
   O       -1.92530        13.76242        -9.86461
   C       -2.44544        15.92794       -11.94889
   C       -2.62001        16.73494       -13.09506
   C       -2.36955        16.17867       -14.38303
   C       -1.94590        14.83644       -14.50931
   C       -2.55471        16.99025       -15.52112
   C       -2.96706        18.28865       -15.39495
   C       -3.21217        18.83563       -14.12638
   C       -3.04184        18.07571       -13.00099
   H       -0.71949        -2.30706        -7.37684
   H       -1.42667         2.48454        -8.57192
   H       -0.19730         2.14492       -10.63772
   H        1.06338         0.67857       -12.16190
   H        1.42263        -1.69083       -11.59258
   H        0.52166        -2.61353        -9.49397
   H       -2.84910        -0.11056        -3.02158
   H       -3.13778         4.29075        -0.59182
   H       -4.71481         2.63298         0.62632
   H       -3.04954         2.41201         1.16721
   H       -4.23621         1.11395         1.41510
   H       -2.99056         7.75032         0.44375
   H       -2.94200         8.77081        -1.01046
   H       -0.56489         7.41248         0.37820
   H       -0.88034         9.15064         0.28234
   H       -0.42661         8.24395        -1.16573
   H       -1.21298         8.76015       -10.08182
   H       -1.60342        11.66425        -9.15003
   H       -1.12530        10.28621       -11.87181
   H       -2.63429        16.32949       -10.96441
   H       -1.76875        14.44485       -15.49829
   H       -2.36361        16.56479       -16.49532
   H       -3.10667        18.90201       -16.27245
   H       -3.53725        19.86204       -14.04559
   H       -3.22962        18.49121       -12.02187
*
