# ORCA input file
# SCF done       -158.191773559577          0.000582418957
! CAM-B3LYP def2-SVP def2/J RIJCOSX Grid4 TightSCF
%maxcore 5000
%tddft
    Mode sTDDFT
    Ethresh 5.0
    maxcore 5000
end

%pal
  nprocs 6
  end
* xyz 0 1
   C       -2.95334        -1.57576         2.77825
   N       -3.97991        -1.38098         1.91233
   C       -5.13729        -2.22783         1.76877
   C       -6.11958        -2.03320         2.92088
   C       -3.82919        -0.16615         1.19303
   O       -4.62452         0.21907         0.36467
   C       -2.58543         0.37251         1.69334
   C       -2.07570        -0.53171         2.67636
   C       -0.83543         0.02056         3.17464
   O       -0.03636        -0.37461         3.99338
   N       -0.68878         1.24256         2.47524
   C        0.51998         2.01070         2.65382
   C        1.42407         1.95880         1.42546
   C       -1.72543         1.45398         1.58940
   C       -1.96460         2.55686         0.71849
   C       -1.38425         3.77763         0.71072
   C       -1.76385         4.78404        -0.22278
   S       -1.14041         6.43073        -0.10554
   C       -2.11842         6.75609        -1.53290
   N       -2.76090         5.70160        -1.94467
   N       -2.57188         4.62955        -1.23059
   C       -2.20675         8.02899        -2.16712
   C       -1.63361         9.14440        -1.68250
   C       -1.75021        10.47030        -2.23856
   C       -1.95580        10.76827        -3.62578
   C       -1.99380         9.95446        -4.73171
   S       -2.36664        10.82722        -6.15010
   C       -2.45400        12.30828        -5.30605
   C       -2.18482        12.15249        -3.96801
   C       -2.07992        13.10611        -2.90172
   N       -1.83882        12.69921        -1.67146
   N       -1.69716        11.44419        -1.35312
   C       -2.19190        14.53641        -3.04382
   C       -1.90198        15.26589        -4.13572
   C       -1.99917        16.68688        -4.17467
   S       -2.63180        17.66214        -2.85161
   C       -2.29810        19.04637        -3.89459
   N       -1.79498        18.69360        -5.04210
   N       -1.63658        17.41026        -5.19413
   C       -2.57908        20.37343        -3.46658
   C       -2.22369        21.45614        -4.19681
   C       -2.40387        22.83508        -3.89906
   N       -3.15722        23.43453        -2.90972
   C       -4.10141        22.83303        -1.99903
   C       -5.32764        22.28311        -2.72216
   C       -3.03186        24.83922        -2.93818
   O       -3.61180        25.57252        -2.16105
   C       -2.11709        25.10368        -4.02187
   C       -1.76438        23.85280        -4.59485
   C       -0.83917        24.09891        -5.67748
   O       -0.26930        23.36609        -6.45535
   N       -0.70132        25.50695        -5.69198
   C        0.20567        26.14966        -6.61088
   C        1.53209        26.50298        -5.94169
   C       -1.44836        26.10720        -4.71024
   C       -1.49192        27.52676        -4.50412
   C       -2.20850        28.09415        -3.53163
   H       -2.91446        -2.44849         3.40418
   H       -4.81460        -3.27168         1.71418
   H       -5.61037        -1.94703         0.82401
   H       -5.65303        -2.28401         3.87111
   H       -6.98701        -2.67127         2.77844
   H       -6.45059        -0.99830         2.95789
   H        1.03132         1.54604         3.50316
   H        0.27686         3.04090         2.92723
   H        1.70438         0.92930         1.21641
   H        2.32765         2.53299         1.61129
   H        0.92429         2.36487         0.54914
   H       -2.75910         2.37755         0.00483
   H       -0.62834         4.07126         1.42102
   H       -2.82588         8.04002        -3.05171
   H       -1.10676         9.10806        -0.73726
   H       -1.81204         8.90159        -4.79679
   H       -2.70915        13.19897        -5.84176
   H       -2.46525        15.04213        -2.12593
   H       -1.52858        14.82106        -5.04566
   H       -3.06883        20.45016        -2.50952
   H       -1.68600        21.28045        -5.12020
   H       -4.40657        23.64133        -1.32659
   H       -3.61051        22.06128        -1.40039
   H       -5.83488        23.08624        -3.25120
   H       -6.01714        21.85358        -2.00052
   H       -5.05087        21.51703        -3.44262
   H       -0.26722        27.03966        -7.03531
   H        0.38203        25.42776        -7.41350
   H        1.37902        27.18248        -5.10597
   H        2.19443        26.97545        -6.66172
   H        2.01016        25.60014        -5.56985
   H       -0.91292        28.13739        -5.18296
   H       -2.79266        27.50505        -2.84454
   H       -2.22486        29.16269        -3.40289
*
