# ORCA input file
# SCF done       -206.579343743471          0.000848213392
! CAM-B3LYP def2-SVP def2/J RIJCOSX Grid4 TightSCF
%maxcore 5000
%tddft
    Mode sTDDFT
    Ethresh 5.0
    maxcore 5000
end

%pal
  nprocs 6
  end
* xyz 0 1
   C        2.95772        13.44248         8.09413
   N        1.69383        13.00472         8.33488
   C        1.02256        13.01928         9.61008
   C        0.53261        14.42004         9.96840
   C        1.05419        12.59341         7.14318
   O       -0.08148        12.16139         7.11084
   C        2.04944        12.80892         6.12179
   C        3.22071        13.33574         6.75747
   C        4.22252        13.55512         5.73490
   O        5.35796        13.97270         5.77598
   N        3.58760        13.14697         4.54356
   C        4.25915        13.25426         3.27191
   C        3.83046        14.50256         2.50367
   C        2.29923        12.70961         4.76249
   C        1.43925        12.26052         3.72279
   C        0.18602        11.80079         3.94410
   C       -0.68596        11.39155         2.90333
   S       -0.29250        11.54380         1.17758
   C       -1.89553        10.87864         0.89221
   N       -2.53060        10.61110         1.99966
   N       -1.87081        10.89322         3.08597
   C       -2.42155        10.71082        -0.41754
   C       -3.65874        10.20923        -0.62320
   C       -4.32302        10.08375        -1.88092
   C       -5.50972         9.37795        -2.04210
   O       -6.17663         8.66592        -1.12420
   S       -6.18072         9.40656        -3.64172
   C       -4.86977        10.41938        -4.16272
   C       -3.96299        10.67696        -3.12731
   N       -2.97244        11.49599        -3.59160
   C       -3.24045        11.78026        -4.90514
   C       -4.42117        11.11586        -5.29003
   S       -4.83408        11.45498        -6.92598
   C       -3.41564        12.49115        -7.08371
   C       -2.67070        12.54762        -5.92354
   C       -3.14240        13.19693        -8.28449
   C       -3.95392        13.22618        -9.36487
   C       -3.70120        13.98283       -10.54417
   C       -2.59563        14.71367       -10.88954
   C       -2.70826        15.37966       -12.12872
   C       -1.75743        16.22176       -12.74616
   C       -0.44860        16.47779       -12.17908
   C        0.24685        17.65375       -12.16490
   C        1.52855        17.54118       -11.58988
   C        1.83003        16.28165       -11.17531
   S        0.51044        15.19870       -11.47991
   C        3.07759        15.78681       -10.53696
   C       -2.13484        16.79087       -13.95566
   C       -3.38139        16.52870       -14.58517
   C       -4.35737        15.72574       -13.94517
   C       -3.97633        15.16572       -12.73172
   S       -4.95356        14.09814       -11.76116
   C       -5.70550        15.59038       -14.45086
   C       -6.85946        15.59754       -13.71204
   C       -8.03024        15.54238       -14.48908
   C       -7.79502        15.47732       -15.82842
   S       -6.09332        15.47783       -16.14965
   C       -8.76782        15.47493       -16.94771
   C       -3.49884        17.20690       -15.80729
   C       -2.42496        18.00390       -16.12490
   S       -1.16587        17.87953       -14.90759
   C       -2.22460        18.80533       -17.26681
   C       -3.11163        19.17146       -18.24076
   C       -2.55030        19.63679       -19.54551
   O       -1.40925        19.96826       -19.76365
   C       -3.67712        19.54328       -20.48454
   C       -3.88923        19.71373       -21.81830
   S       -5.56082        19.39071       -22.22055
   C       -5.95349        19.04326       -20.57436
   C       -4.86184        19.16058       -19.77422
   C       -4.55033        19.06507       -18.35864
   C       -5.50330        19.08784       -17.36883
   C       -5.23364        19.32510       -16.00814
   N       -5.06543        19.55330       -14.89558
   C       -6.86742        18.89620       -17.65118
   N       -7.97627        18.67394       -17.85489
  Cl       -2.77212        20.17208       -23.00694
   H        3.58358        13.79360         8.89379
   H        1.70465        12.64451        10.37875
   H        0.17122        12.33909         9.52093
   H        1.36728        15.11515        10.03012
   H        0.02289        14.39950        10.92740
   H       -0.16225        14.77640         9.21189
   H        4.07778        12.35092         2.68243
   H        5.32705        13.31656         3.50053
   H        2.76221        14.48929         2.29824
   H        4.36802        14.55791         1.56105
   H        4.05885        15.39102         3.08710
   H        1.81686        12.29713         2.70921
   H       -0.21967        11.73409         4.94493
   H       -1.77844        11.00320        -1.23213
   H       -4.20063         9.89836         0.26214
   H       -5.73506         8.71208        -0.26456
   H       -2.22689        11.89679        -3.05028
   H       -1.77262        13.13074        -5.83164
   H       -2.22312        13.76649        -8.28431
   H       -4.88141        12.66923        -9.34179
   H       -1.72411        14.77536       -10.26612
   H       -0.15928        18.58298       -12.52056
   H        2.20545        18.37102       -11.49082
   H        3.78939        16.60225       -10.43414
   H        3.53062        14.99816       -11.13732
   H        2.86964        15.37452        -9.54965
   H       -6.87209        15.69363       -12.64189
   H       -9.01935        15.56074       -14.06786
   H       -9.76430        15.24912       -16.57644
   H       -8.49124        14.74404       -17.70562
   H       -8.78679        16.45992       -17.42058
   H       -4.32394        17.06930       -16.47740
   H       -1.20235        19.12209       -17.45034
   H       -6.95795        18.76837       -20.32093
*
