# ORCA input file
# SCF done       -180.470201467136          0.000993822970
! CAM-B3LYP def2-SVP def2/J RIJCOSX Grid4 TightSCF
%maxcore 5000
%tddft
    Mode sTDDFT
    Ethresh 5.0
    maxcore 5000
end

%pal
  nprocs 6
  end
* xyz 0 1
   C      -12.18902         5.26120        -1.71939
   N      -11.36775         4.73267        -0.76599
   C      -11.76808         3.82591         0.27908
   C      -12.00198         2.41525        -0.25520
   C      -10.03553         5.14071        -0.95168
   O       -9.11681         4.78803        -0.21806
   C      -10.08262         5.98853        -2.10478
   C      -11.44380         6.03707        -2.55754
   C      -11.49430         6.90100        -3.71717
   O      -12.40054         7.25407        -4.43954
   N      -10.15965         7.32521        -3.88811
   C       -9.78813         8.18527        -4.98326
   C       -9.16652         7.40246        -6.13792
   C       -9.31512         6.79096        -2.94052
   C       -7.92571         7.06205        -2.86565
   C       -7.18697         6.50788        -1.87282
   N       -5.86569         6.70179        -1.68849
   C       -5.12696         6.13244        -0.66703
   C       -5.56436         5.21043         0.24108
   S       -4.32572         4.75226         1.33888
   C       -3.20175         5.81406         0.59461
   C       -3.75055         6.47738        -0.46232
   N       -3.10502         7.42134        -1.27281
   C       -1.76130         7.48901        -1.48086
   N       -0.90819         6.42532        -1.63383
   C       -1.23441         5.02798        -1.79408
   C       -2.15461         4.77966        -2.98471
   C        0.42505         6.87872        -1.86556
   O        1.35921         6.11747        -2.02412
   C        0.32646         8.30917        -1.85116
   C       -1.03767         8.65473        -1.63295
   C       -1.13274        10.08173        -1.57575
   O       -2.08849        10.82547        -1.43315
   N        0.19735        10.52824        -1.73140
   C        0.46206        11.94333        -1.80451
   C        0.82167        12.39050        -3.21959
   C        1.07746         9.47599        -1.89201
   C        2.49487         9.46054        -2.01596
   C        3.38918        10.46223        -1.87002
   C        4.81146        10.31620        -1.93302
   C        5.71256        11.35213        -2.13720
   C        5.40483        12.78722        -2.36201
   C        7.06774        10.85896        -2.09079
   C        6.96998         9.48128        -1.87154
   C        5.57659         9.10590        -1.76258
   C        5.29418         7.79425        -1.47400
   C        6.37118         6.88715        -1.38494
   C        7.64762         7.31946        -1.58124
   O        7.95707         8.59067        -1.81867
   C        8.21269        11.65009        -2.30753
   C        9.53416        11.40562        -2.04304
   C       10.55407        12.20949        -2.77610
   O       10.34778        13.18172        -3.46585
   C       11.82908        11.52907        -2.50353
   C       13.13236        11.64727        -2.87549
   S       14.10706        10.41464        -2.10536
   C       12.73533         9.76406        -1.27784
   C       11.60488        10.44955        -1.58764
   C       10.20151        10.44036        -1.21021
   C        9.70618         9.76832        -0.11589
   C        8.43772         9.98811         0.44256
   N        7.40533        10.14563         0.92141
   C       10.48219         8.82559         0.58308
   N       11.08094         8.01787         1.13783
  Cl       13.82540        12.78578        -3.92315
   H      -13.24194         5.05002        -1.71920
   H      -12.67578         4.20628         0.75773
   H      -10.95386         3.81766         1.00894
   H      -12.79133         2.41499        -1.00368
   H      -12.29030         1.75457         0.55770
   H      -11.09128         2.03345        -0.71021
   H       -9.10447         8.96060        -4.62520
   H      -10.71332         8.66041        -5.32170
   H       -8.27008         6.87779        -5.81455
   H       -8.90580         8.07987        -6.94664
   H       -9.87813         6.67088        -6.51213
   H       -7.47245         7.71745        -3.59491
   H       -7.66440         5.85974        -1.15277
   H       -5.36492         7.30841        -2.32555
   H       -6.53716         4.77158         0.33411
   H       -2.21057         5.91546         0.98903
   H       -3.52948         8.34380        -1.28210
   H       -1.68664         4.62895        -0.88130
   H       -0.27205         4.53198        -1.95393
   H       -3.13657         5.21623        -2.81939
   H       -2.27581         3.71008        -3.13151
   H       -1.72714         5.20916        -3.88784
   H        1.24288        12.21577        -1.08856
   H       -0.47019        12.42721        -1.49524
   H        1.70105        11.86587        -3.58639
   H        1.01787        13.45946        -3.22971
   H       -0.00671        12.18448        -3.89300
   H        2.85378         8.46715        -2.24012
   H        3.04784        11.46871        -1.68865
   H        4.33718        12.97989        -2.34046
   H        5.78954        13.10699        -3.33073
   H        5.88818        13.39522        -1.59782
   H        4.29328         7.43158        -1.30796
   H        6.18755         5.84857        -1.16990
   H        8.51724         6.68035        -1.54498
   H        8.04179        12.58332        -2.83561
   H       12.86552         8.91967        -0.63068
*
