# ORCA input file
# SCF done       -249.993132787296          0.000971337772
! CAM-B3LYP def2-SVP def2/J RIJCOSX Grid4 TightSCF
%maxcore 5000
%tddft
    Mode sTDDFT
    Ethresh 5.0
    maxcore 5000
end

%pal
  nprocs 6
  end
* xyz 0 1
   C        8.46579        -6.08302        16.92161
   O        8.13522        -5.07475        16.33221
   C        8.38963        -6.34735        18.35339
   C        8.87044        -7.61402        18.65875
   C        8.80817        -7.89806        20.03706
   C        8.28574        -6.84472        20.72769
   S        7.86156        -5.49766        19.73793
   C        9.29699        -8.26353        17.43503
   C        9.83848        -9.52088        17.37425
   C       10.01995       -10.30246        18.53530
   N       10.17614       -10.95471        19.46633
   C       10.27740       -10.18696        16.21310
   N       10.65770       -10.79147        15.31344
   C        9.03818        -7.32790        16.34875
   C        9.27265        -7.58077        15.02895
   C        9.05905        -6.78774        13.88069
   C        9.34623        -7.26351        12.61286
   C        9.05776        -6.35842        11.58149
   C        8.50620        -5.15099        12.09287
   S        8.41010        -5.16268        13.83323
   C        8.11912        -4.10186        11.27243
   C        7.61767        -2.82901        11.79955
   C        8.13784        -1.62169        11.33234
   C        7.66106        -0.42024        11.81295
   C        6.65277        -0.38263        12.77103
   C        6.14389        -1.58586        13.24173
   C        6.61839        -2.79399        12.76785
   C        6.14665         0.93124        13.27951
   C        8.24216        -4.31165         9.88439
   C        8.78673        -5.52283         9.37460
   C        9.22677        -6.54668        10.18984
   C        9.84479        -7.76588         9.65637
   C       11.07004        -8.21090        10.14987
   C       11.65587        -9.35314         9.64361
   C       11.03816       -10.08824         8.63703
   C        9.81910        -9.64019         8.14570
   C        9.22950        -8.49347         8.64240
   C       11.67724       -11.33691         8.11324
   S        8.82854        -5.51076         7.62611
   C        8.09157        -3.92193         7.58931
   C        7.84333        -3.44126         8.85257
   C        7.77612        -3.30644         6.34087
   C        7.25327        -2.00024         6.20391
   C        6.84155        -1.48590         4.92549
   N        6.32329        -0.24322         4.84731
   C        6.21260         0.47912         5.91304
   C        6.64376        -0.01857         7.16811
   N        7.13735        -1.20644         7.29061
   F        6.56549         0.73060         8.26920
   F        5.69758         1.70006         5.79435
   C        6.93639        -2.22469         3.72647
   C        7.54479        -3.49400         3.84595
   C        7.95268        -4.01194         5.13080
   N        8.48977        -5.22718         5.02629
   S        8.49377        -5.67416         3.48668
   N        7.80971        -4.36110         2.86620
   C        6.40973        -1.72767         2.49745
   C        6.39255        -2.39240         1.29319
   C        5.74153        -1.68653         0.26317
   C        5.23435        -0.44124         0.72529
   S        5.62125        -0.17122         2.40725
   C        4.51978         0.41750        -0.08553
   C        3.90154         1.66557         0.37915
   C        4.09238         2.86364        -0.30344
   C        3.38387         3.99442         0.05485
   C        2.46434         3.96034         1.09597
   C        2.30981         2.77266         1.80208
   C        3.01885         1.64048         1.45519
   C        1.62646         5.15467         1.42514
   C        4.27496        -0.02062        -1.40220
   C        4.73669        -1.28622        -1.85056
   C        5.50038        -2.12437        -1.05608
   C        6.03147        -3.40362        -1.54043
   C        7.38274        -3.70554        -1.38953
   C        7.88885        -4.90430        -1.85250
   C        7.06486        -5.83638        -2.47087
   C        5.71602        -5.53236        -2.61750
   C        5.20352        -4.33324        -2.16432
   C        7.61352        -7.12964        -2.98953
   S        4.19871        -1.60535        -3.47947
   C        3.30206        -0.09585        -3.51895
   C        3.48632         0.62784        -2.36834
   C        2.53694         0.25229        -4.65835
   C        1.56819         1.20060        -4.77133
   C        1.18738         1.66182        -6.14574
   O        1.46239         1.12200        -7.19181
   C        0.47191         2.91067        -5.90532
   C        0.32128         3.15083        -4.54434
   C        0.87094         2.03141        -3.80191
   C        0.56037         1.75628        -2.49509
   C       -0.10065         2.68983        -1.67183
   N       -0.59594         3.45354        -0.97271
   C        0.80286         0.52571        -1.85230
   N        0.91564        -0.47433        -1.30096
   C       -0.36991         4.34796        -4.27734
   C       -0.71251         4.98038        -5.43593
   S       -0.22611         4.14248        -6.86270
   H        9.12519        -8.81518        20.49738
   H        8.12266        -6.78099        21.78581
   H        9.68831        -8.55338        14.79103
   H        9.73545        -8.25263        12.44517
   H        8.93712        -1.63165        10.60588
   H        8.07216         0.50600        11.43841
   H        5.36166        -1.57993        13.98703
   H        6.19118        -3.71633        13.13134
   H        6.91912         1.42952        13.86520
   H        5.27098         0.79622        13.90916
   H        5.88688         1.58517        12.44867
   H       11.57482        -7.63978        10.91573
   H       12.60859        -9.68248        10.03305
   H        9.32169       -10.19684         7.36440
   H        8.27403        -8.17008         8.25784
   H       11.64044       -12.12129         8.86928
   H       12.72363       -11.15929         7.87112
   H       11.16584       -11.69366         7.22287
   H        7.36409        -2.49703         9.02400
   H        6.81412        -3.37328         1.17573
   H        4.80858         2.90817        -1.11259
   H        3.53744         4.91473        -0.49148
   H        1.61031         2.73224         2.62402
   H        2.86438         0.71778         1.99344
   H        2.08454         6.06991         1.05802
   H        1.47331         5.23832         2.49863
   H        0.64920         5.04637         0.95242
   H        8.04111        -2.98428        -0.92792
   H        8.94144        -5.11871        -1.73332
   H        5.05898        -6.24728        -3.09151
   H        4.14938        -4.12471        -2.26936
   H        8.57605        -7.35510        -2.53697
   H        7.75093        -7.06829        -4.06952
   H        6.92666        -7.94912        -2.78805
   H        3.09175         1.61651        -2.22377
   H        2.78628        -0.26006        -5.58230
   H       -0.59496         4.72777        -3.29806
   H       -1.23994         5.90889        -5.53580
*
