# ORCA input file
# SCF done       -204.074747098914          0.000899454411
! CAM-B3LYP def2-SVP def2/J RIJCOSX Grid4 TightSCF
%maxcore 5000
%tddft
    Mode sTDDFT
    Ethresh 5.0
    maxcore 5000
end

%pal
  nprocs 6
  end
* xyz 0 1
   C       23.83989        -0.84192         0.63133
   C       22.55450        -1.11379         0.99320
   C       21.80149        -1.70097        -0.07761
   C       22.51512        -1.85116        -1.22031
   S       24.13169        -1.28804        -1.00472
   C       20.43046        -1.98907         0.36519
   O       19.54498        -2.47952        -0.30175
   C       20.41709        -1.60091         1.79870
   C       21.66229        -0.93215         2.12269
   C       21.85649        -0.14158         3.22780
   N       23.11893         0.39112         3.62347
   O       23.11546         1.42043         4.26291
   O       24.11767        -0.21578         3.28593
   N       20.75182         0.31649         4.05216
   O       20.89236         0.25296         5.24910
   O       19.77073         0.72998         3.47393
   C       19.51414        -1.99074         2.76425
   C       18.22671        -2.52167         2.64238
   C       17.37717        -2.61907         1.54070
   C       16.14828        -3.14449         1.89063
   C       16.02306        -3.45518         3.27957
   S       17.45933        -3.08671         4.13839
   C       14.73658        -3.94162         3.46667
   C       14.10777        -3.91606         2.19074
   N       14.97762        -3.44469         1.24661
   C       14.70182        -3.24832        -0.14971
   C       12.79168        -4.35288         2.21819
   C       12.39877        -4.71705         3.50151
   S       13.67378        -4.53185         4.69394
   C       11.10594        -5.16251         3.88705
   C       10.80560        -5.49886         5.22632
   C        9.49243        -5.87798         5.65294
   N        9.28273        -6.17734         6.94980
   C       10.26241        -6.11913         7.79140
   C       11.56575        -5.74259         7.36821
   N       11.80262        -5.44934         6.13146
   F       12.57505        -5.68890         8.22810
   F       10.01740        -6.42740         9.05860
   C        8.39145        -5.94224         4.76904
   C        8.69287        -5.65639         3.41453
   C       10.02107        -5.27563         2.98289
   N       10.06039        -5.04903         1.66895
   S        8.60401        -5.28660         1.04097
   N        7.83812        -5.68680         2.39109
   C        7.08114        -6.23722         5.23075
   C        5.93020        -6.28811         4.45047
   C        4.80324        -6.54531         5.21540
   C        5.08862        -6.69581         6.60293
   S        6.77561        -6.52809         6.93401
   C        3.87129        -6.90084         7.23605
   C        2.87414        -6.87968         6.21182
   N        3.45989        -6.67816         4.99415
   C        2.74414        -6.41385         3.77446
   C        1.58451        -6.99863         6.68852
   C        1.55354        -7.06888         8.08375
   S        3.17468        -7.10160         8.78956
   C        0.45958        -7.11443         8.95303
   C       -0.86281        -6.80284         8.73977
   C       -1.56543        -6.12793         7.68135
   C       -1.05854        -5.20740         6.78287
   N       -1.80626        -4.73736         5.65759
   O       -1.65096        -3.58689         5.31349
   O       -2.55268        -5.53159         5.11363
   N        0.23526        -4.61907         6.90241
   O        0.81357        -4.32953         5.87005
   O        0.70527        -4.48544         8.01330
   C       -2.98058        -6.42029         7.86618
   C       -4.16964        -6.19454         7.23808
   S       -5.49161        -6.77116         8.17604
   C       -4.45276        -7.32497         9.43739
   C       -3.15647        -7.07857         9.13034
   C       -1.84517        -7.30825         9.74723
   O       -1.58615        -7.82595        10.80658
   H       24.64166        -0.44608         1.22176
   H       22.20016        -2.24639        -2.16522
   H       19.84922        -1.91381         3.79378
   H       17.67622        -2.31269         0.55671
   H       14.01727        -4.02153        -0.49665
   H       15.63223        -3.31376        -0.71160
   H       14.24890        -2.26882        -0.32706
   H       12.12324        -4.40751         1.38036
   H        5.95766        -6.13160         3.38900
   H        2.17886        -7.29617         3.46627
   H        3.45432        -6.15295         2.99402
   H        2.05260        -5.58112         3.92623
   H        0.70383        -7.06714         6.07588
   H        0.66604        -7.47531         9.95640
   H       -4.36522        -5.77168         6.27294
   H       -4.86140        -7.78593        10.31405
*
