# ORCA input file
# SCF done       -229.631142762660          0.000978553271
! CAM-B3LYP def2-SVP def2/J RIJCOSX Grid4 TightSCF
%maxcore 5000
%tddft
    Mode sTDDFT
    Ethresh 5.0
    maxcore 5000
end

%pal
  nprocs 6
  end
* xyz 0 1
   C       -0.83939         2.03022         3.78124
   C       -0.81991         3.11771         2.91837
   C       -0.01661         3.11770         1.78536
   C        0.76313         2.00288         1.53980
   C        0.74207         0.90597         2.40809
   C       -0.05721         0.90944         3.53622
   C        1.65862        -0.15505         1.92052
   O        1.85375        -1.21735         2.47553
   C        2.24295         0.36741         0.67156
   C        1.70096         1.72819         0.42790
   O        1.97699         2.45829        -0.49818
   C        3.12628        -0.15176        -0.22462
   C        3.78800        -1.40057        -0.26345
   C        3.73451        -2.47172         0.59346
   C        4.55362        -3.55076         0.21086
   C        4.70824        -4.79144         0.87416
   C        3.92089        -5.15119         2.03284
   C        4.31469        -5.85353         3.13932
   C        3.27131        -6.07546         4.05682
   C        2.07413        -5.56703         3.65171
   S        2.21997        -4.77930         2.11940
   C        0.76368        -5.61118         4.35105
   C        5.63864        -5.66742         0.33121
   C        6.35876        -5.39465        -0.86129
   C        6.17377        -4.17534        -1.55321
   C        5.28847        -3.27227        -0.97380
   S        4.89179        -1.70057        -1.60132
   C        6.84920        -3.88280        -2.79789
   C        7.36855        -2.68764        -3.21790
   C        7.94192        -2.74865        -4.50128
   C        7.84900        -3.97847        -5.08055
   S        7.05171        -5.09953        -4.03204
   C        8.33046        -4.41601        -6.41599
   C        7.22117        -6.45310        -1.20447
   C        7.16769        -7.52031        -0.34274
   S        6.05087        -7.23582         0.97387
   C        7.89003        -8.75063        -0.40701
   C        8.66236        -9.17248        -1.51496
   C        9.36154       -10.43490        -1.53259
   N       10.05055       -10.78118        -2.64115
   C       10.08203        -9.98748        -3.65966
   C        9.40978        -8.74344        -3.63599
   N        8.73330        -8.37212        -2.60050
   F        9.45096        -7.90922        -4.67809
   F       10.76690       -10.38995        -4.73336
   C        9.34899       -11.32129        -0.42905
   C        8.57548       -10.89659         0.67107
   C        7.84978        -9.65344         0.67487
   N        7.17646        -9.47916         1.81295
   S        7.42999       -10.73739         2.77603
   N        8.40325       -11.57039         1.80896
   C       10.03717       -12.57115        -0.37667
   C       10.77051       -13.18591        -1.36210
   C       11.30152       -14.43500        -0.99001
   C       12.10976       -15.29656        -1.76974
   C       12.43178       -15.02239        -3.15134
   C       13.59687       -15.29725        -3.81738
   C       13.56640       -14.92881        -5.17454
   C       12.37905       -14.38608        -5.56427
   S       11.26796       -14.31184        -4.24073
   C       11.98455       -13.87501        -6.90180
   C       12.56616       -16.44704        -1.13268
   C       12.25933       -16.76713         0.21757
   C       11.46783       -15.89115         0.99898
   C       10.98733       -14.75851         0.35628
   S        9.98979       -13.52796         1.08746
   C       11.19463       -16.13952         2.39666
   C       10.04500       -15.88809         3.09525
   C       10.14745       -16.19811         4.46387
   C       11.37486       -16.66631         4.82479
   S       12.43381       -16.74988         3.46047
   C       11.84780       -17.09036         6.16824
   C       12.75802       -18.02902         0.59220
   C       13.44648       -18.67432        -0.40500
   S       13.50380       -17.70905        -1.87517
   C       14.08257       -19.93674        -0.42236
   C       14.17892       -20.90573         0.52866
   C       14.92942       -22.14545         0.20541
   O       15.48180       -22.40075        -0.84177
   C       14.86519       -22.99304         1.41721
   C       15.40450       -24.24421         1.65128
   C       15.19063       -24.82690         2.89371
   C       14.45653       -24.17221         3.87358
   C       13.91437       -22.91526         3.64057
   C       14.12594       -22.33259         2.40469
   C       13.66215       -21.01367         1.90551
   O       12.99358       -20.22284         2.53971
   H       -1.47166         2.05850         4.65650
   H       -1.43815         3.97668         3.13371
   H        0.00614         3.95918         1.11009
   H       -0.06449         0.05968         4.20161
   H        3.35740         0.51361        -1.05367
   H        3.12663        -2.45582         1.47919
   H        5.32827        -6.16800         3.30871
   H        3.40381        -6.59768         4.98773
   H        0.85986        -6.15031         5.29058
   H        0.01408        -6.10748         3.73489
   H        0.40860        -4.60175         4.55729
   H        7.37986        -1.80199        -2.60885
   H        8.40986        -1.90668        -4.97973
   H        8.93995        -3.63669        -6.86720
   H        7.48961        -4.62785        -7.07715
   H        8.92122        -5.32683        -6.32846
   H        7.88060        -6.44485        -2.04914
   H       10.92089       -12.72394        -2.31714
   H       14.46670       -15.71096        -3.34049
   H       14.40019       -15.05988        -5.84109
   H       12.80726       -13.99082        -7.60318
   H       11.71675       -12.82019        -6.84117
   H       11.11828       -14.41664        -7.28145
   H        9.14256       -15.52789         2.63624
   H        9.33656       -16.07610         5.15993
   H       11.05990       -16.94719         6.90402
   H       12.72159       -16.51293         6.46979
   H       12.13305       -18.14220         6.15610
   H       12.60553       -18.48008         1.55523
   H       14.57919       -20.18500        -1.35789
   H       15.97251       -24.74590         0.88298
   H       15.60049       -25.80419         3.10203
   H       14.30485       -24.64944         4.83059
   H       13.34098       -22.39949         4.39565
*
