# ORCA input file
# SCF done       -270.369715162765          0.000731329842
! CAM-B3LYP def2-SVP def2/J RIJCOSX Grid4 TightSCF
%maxcore 5000
%tddft
    Mode sTDDFT
    Ethresh 5.0
    maxcore 5000
end

%pal
  nprocs 6
  end
* xyz 0 1
   C      -14.51559        -3.07174        -0.27913
   C      -15.21994        -2.85333         0.89555
   C      -14.56624        -2.75075         2.11555
   C      -13.18584        -2.85661         2.19586
   C      -12.47248        -3.07742         1.02994
   C      -13.13613        -3.19016        -0.21370
   C      -12.14862        -3.43438        -1.25741
   C      -12.38629        -3.46356        -2.60470
   C      -13.65541        -3.26529        -3.18899
   N      -14.65748        -3.11490        -3.72790
   C      -11.40025        -3.64639        -3.59727
   N      -10.64893        -3.77986        -4.45536
   C      -10.87218        -3.64122        -0.58075
   C      -11.04296        -3.18901         0.79529
   C      -10.05237        -2.69366         1.59908
   C       -8.72480        -2.50288         1.15704
   N       -7.65786        -2.26926         0.80392
   C      -10.26067        -2.23654         2.91551
   N      -10.36930        -1.88000         4.00103
   C       -9.79679        -4.28035        -1.12529
   C       -8.70623        -4.88794        -0.45429
   C       -7.51371        -5.22669        -1.04830
   C       -6.59827        -5.85425        -0.18126
   C       -7.14637        -6.04900         1.11456
   S       -8.76969        -5.42421         1.21841
   C       -6.47343        -6.68391         2.14063
   C       -7.06018        -6.84343         3.47531
   C       -7.08366        -8.08803         4.10187
   C       -7.64013        -8.22745         5.35657
   C       -8.18484        -7.13512         6.02451
   C       -8.16246        -5.89686         5.39579
   C       -7.61092        -5.74969         4.13768
   C       -8.76401        -7.30118         7.39457
   C       -5.18303        -7.16424         1.83314
   C       -4.63995        -6.99632         0.53129
   C       -5.30132        -6.32059        -0.48036
   C       -4.67935        -6.05800        -1.78171
   C       -4.06427        -7.07563        -2.50431
   C       -3.46753        -6.80716        -3.72144
   C       -3.45772        -5.52099        -4.24512
   C       -4.06555        -4.50429        -3.51504
   C       -4.67090        -4.76447        -2.30291
   C       -2.81883        -5.22230        -5.56566
   S       -3.03619        -7.67684         0.42416
   C       -3.07859        -8.12563         2.11648
   C       -4.27098        -7.78313         2.70845
   C       -1.95091        -8.77363         2.70781
   C       -1.82613        -9.07047         4.08388
   C       -0.65089        -9.70916         4.61236
   N       -0.56377        -9.94469         5.93752
   C       -1.53491        -9.60747         6.71975
   C       -2.70203        -8.99547         6.19536
   N       -2.82411        -8.74382         4.93445
   F       -3.71869        -8.66201         6.99033
   F       -1.40668        -9.84927         8.02113
   C        0.43846       -10.11531         3.81148
   C        0.31261        -9.83232         2.43352
   C       -0.85423        -9.16340         1.90854
   N       -0.76649        -8.98101         0.59063
   S        0.62153        -9.58180         0.06229
   N        1.19162       -10.10692         1.46660
   C        1.57801       -10.76583         4.37082
   C        2.65962       -11.25441         3.67416
   C        3.63598       -11.85517         4.49061
   C        3.28906       -11.77541         5.86680
   S        1.72771       -11.02255         6.09142
   C        4.09539       -12.27424         6.87224
   C        3.69146       -12.26515         8.28214
   C        3.73185       -13.44043         9.02918
   C        3.35110       -13.44354        10.35704
   C        2.92130       -12.27641        10.97625
   C        2.87223       -11.10662        10.22487
   C        3.24721       -11.09705         8.89661
   C        2.49674       -12.27509        12.41160
   C        5.32504       -12.83896         6.47138
   C        5.66594       -12.92773         5.09351
   C        4.83848       -12.46979         4.08285
   C        5.17243       -12.63067         2.66374
   C        4.24658       -13.17962         1.77977
   C        4.56478       -13.34667         0.44615
   C        5.80799       -12.96861        -0.04512
   C        6.72976       -12.42023         0.84019
   C        6.42210       -12.25596         2.17555
   C        6.16437       -13.16298        -1.48612
   S        7.20820       -13.70657         4.87868
   C        7.39688       -13.89933         6.61251
   C        6.32854       -13.36946         7.30002
   C        8.60675       -14.45037         7.09711
   C        8.88103       -14.93816         8.34367
   C       10.23096       -15.08413         8.88189
   C       11.40346       -15.15088         8.17971
   C       11.52022       -15.13824         6.77301
   N       11.69923       -15.13709         5.63888
   C       12.67430       -15.29350         8.77719
   N       13.73645       -15.41203         9.19558
   C       10.09786       -15.15403        10.33150
   C        8.72549       -15.22462        10.66185
   C        8.31765       -15.27871        11.98427
   C        9.28663       -15.26450        12.97605
   C       10.63525       -15.20535        12.65432
   C       11.05533       -15.15004        11.33369
   C        7.95846       -15.25802         9.42681
   C        6.69163       -15.75885         9.29366
   C        5.85824       -16.09443        10.37906
   N        5.12188       -16.35559        11.22034
   C        6.09651       -16.06674         8.05186
   N        5.58498       -16.38730         7.07592
   H      -15.04085        -3.15175        -1.21669
   H      -16.29490        -2.76490         0.85692
   H      -15.13847        -2.58698         3.01588
   H      -12.68584        -2.78136         3.14811
   H       -9.78361        -4.42147        -2.19855
   H       -7.30424        -5.01155        -2.08115
   H       -6.68574        -8.95083         3.58763
   H       -7.65390        -9.19884         5.82967
   H       -8.57750        -5.03371         5.89566
   H       -7.57927        -4.77241         3.67780
   H       -7.96683        -7.48575         8.11465
   H       -9.44138        -8.15296         7.42439
   H       -9.30475        -6.40950         7.70070
   H       -4.07375        -8.08475        -2.12063
   H       -3.00224        -7.61141        -4.27302
   H       -4.05968        -3.49579        -3.90295
   H       -5.11464        -3.95879        -1.73622
   H       -3.58059        -4.95992        -6.29969
   H       -2.26541        -6.08144        -5.93584
   H       -2.13874        -4.37662        -5.47826
   H       -4.47095        -7.96098         3.74720
   H        2.74135       -11.16439         2.60701
   H        4.02837       -14.36349         8.55117
   H        3.38853       -14.36720        10.91706
   H        2.53540       -10.19133        10.68975
   H        3.21797       -10.17634         8.33349
   H        2.81077       -13.18820        12.91064
   H        1.41099       -12.20413        12.47708
   H        2.91722       -11.41972        12.93741
   H        3.28453       -13.50275         2.14913
   H        3.83675       -13.78242        -0.22323
   H        7.70114       -12.11854         0.47607
   H        7.14584       -11.81113         2.84227
   H        5.27956       -13.36656        -2.08398
   H        6.84839       -14.00556        -1.58925
   H        6.66357       -12.28060        -1.88190
   H        6.28685       -13.30360         8.37299
   H        9.42626       -14.40621         6.39165
   H        7.27227       -15.31754        12.24471
   H        8.98508       -15.29898        14.01172
   H       11.37225       -15.19822        13.44269
   H       12.10676       -15.09886        11.10396
*
