# ORCA input file
# SCF done       -212.068560574111          0.000387990194
! CAM-B3LYP def2-SVP def2/J RIJCOSX Grid4 TightSCF
%maxcore 5000
%tddft
    Mode sTDDFT
    Ethresh 5.0
    maxcore 5000
end

%pal
  nprocs 6
  end
* xyz 0 1
   C        1.57947        -0.35426        -4.06134
   C        1.50878        -0.44357        -2.67550
   C        1.09871        -1.66097        -2.03072
   N        1.03384        -1.72052        -0.68692
   C        1.34727        -0.66449         0.00475
   C        1.75555         0.53286        -0.63116
   N        1.83347         0.63961        -1.92376
   C        0.75329        -2.82129        -2.75646
   C        0.82152        -2.71596        -4.16017
   C        1.23615        -1.48021        -4.79803
   N        1.23302        -1.58839        -6.13473
   S        0.76263        -3.06266        -6.53388
   N        0.53438        -3.65903        -5.06284
   C        0.35715        -4.01070        -2.07387
   C        0.02507        -5.21309        -2.64436
   C       -0.33846        -6.20432        -1.71046
   C       -0.70192        -7.54460        -1.97102
   C       -0.84803        -8.02901        -3.32616
   C       -1.41586        -7.39101        -4.39449
   C       -1.39818        -8.15777        -5.57548
   C       -0.81281        -9.37703        -5.42116
   S       -0.27785        -9.60930        -3.78869
   C       -0.61352       -10.44377        -6.43650
   C       -0.92582        -8.34942        -0.86053
   C       -0.83591        -7.87206         0.47290
   C       -0.47370        -6.53087         0.72810
   C       -0.24837        -5.72426        -0.37925
   S        0.25096        -4.04815        -0.33212
   C       -0.32790        -6.04092         2.08323
   C        0.25795        -6.66471         3.14913
   C        0.23372        -5.89508         4.32902
   C       -0.37432        -4.68764         4.17420
   S       -0.92084        -4.46950         2.54276
   C       -0.58899        -3.62313         5.18935
   C       -1.19523        -8.86655         1.40905
   C       -1.52498       -10.06205         0.83183
   S       -1.41683       -10.02438        -0.90891
   C       -1.91794       -11.25833         1.48137
   N       -2.24565       -12.35349         0.86740
   C       -2.56095       -13.31229         1.73788
   C       -2.48235       -12.97610         3.09857
   S       -1.97846       -11.34154         3.26548
   N       -2.79540       -13.93537         3.96926
   C       -3.12378       -15.03020         3.35427
   S       -3.06564       -14.94670         1.57124
   C       -3.49962       -16.23204         4.00394
   C       -3.87550       -17.41192         3.42498
   C       -4.18136       -18.42556         4.36046
   C       -4.57661       -19.75587         4.10122
   C       -4.67529       -20.29572         2.76094
   C       -5.60418       -21.17162         2.27267
   C       -5.37643       -21.54114         0.93257
   C       -4.26780       -20.96788         0.39094
   S       -3.48258       -19.93462         1.53950
   C       -3.71548       -21.12557        -0.97973
   C       -4.84533       -20.54812         5.21196
   C       -4.70226       -20.08923         6.54666
   C       -4.28769       -18.76470         6.80832
   C       -4.05478       -17.96217         5.69615
   S       -3.52206       -16.30012         5.74680
   C       -4.08907       -18.25808         8.14955
   C       -4.37681       -17.00879         8.62670
   C       -4.01073       -16.82527         9.97364
   C       -3.42736       -17.92127        10.53151
   S       -3.33457       -19.22249         9.39126
   C       -2.91746       -18.09445        11.91707
   C       -5.02243       -21.09518         7.48189
   C       -5.36861       -22.29435         6.91637
   S       -5.34365       -22.21779         5.16662
   C       -5.72799       -23.51503         7.57235
   C       -5.69142       -23.70616         8.97541
   C       -6.06582       -24.96790         9.56479
   N       -6.02572       -25.13042        10.91268
   C       -5.63783       -24.12868        11.64183
   C       -5.25906       -22.89391        11.06538
   N       -5.28959       -22.69735         9.78000
   C       -6.47610       -26.05241         8.79493
   C       -6.51072       -25.88697         7.41917
   C       -6.13666       -24.62797         6.81273
   N       -6.23662       -24.67454         5.48160
   S       -6.74097       -26.13209         5.04616
   N       -6.86694       -26.79362         6.49623
   H        1.88811         0.55995        -4.53826
   H        1.28144        -0.74586         1.08053
   H        2.01903         1.40911        -0.05381
   H        0.07402        -5.37058        -3.70516
   H       -1.87120        -6.41963        -4.32559
   H       -1.80820        -7.81479        -6.50903
   H       -0.95837       -10.10163        -7.40932
   H       -1.16834       -11.34099        -6.16256
   H        0.43919       -10.71433        -6.50951
   H        0.73196        -7.62757         3.08010
   H        0.65492        -6.22886         5.26097
   H       -0.23567        -3.95894         6.16136
   H       -1.64612        -3.37132         5.26554
   H       -0.05041        -2.71633         4.91439
   H       -1.23833        -8.70602         2.47103
   H       -3.93478       -17.53240         2.35872
   H       -6.44604       -21.51629         2.84457
   H       -6.01590       -22.21376         0.38886
   H       -4.33377       -21.81289        -1.55214
   H       -2.69816       -21.51454        -0.94255
   H       -3.68512       -20.16601        -1.49558
   H       -4.87072       -16.25392         8.04275
   H       -4.17285       -15.90700        10.50968
   H       -2.97722       -17.15161        12.45542
   H       -1.88148       -18.43105        11.90749
   H       -3.50458       -18.84043        12.45328
   H       -5.01019       -20.96389         8.54639
   H       -5.61340       -24.28227        12.71254
   H       -4.92508       -22.06360        11.67338
   H       -6.75204       -26.98037         9.26536
*
