# ORCA input file
# SCF done       -264.629283867391          0.000442132984
! CAM-B3LYP def2-SVP def2/J RIJCOSX Grid4 TightSCF
%maxcore 5000
%tddft
    Mode sTDDFT
    Ethresh 5.0
    maxcore 5000
end

%pal
  nprocs 6
  end
* xyz 0 1
   C       -4.09170         2.55454        -0.30104
   C       -3.30458         3.12947         0.65671
   F       -2.95908         4.42013         0.55938
   C       -2.84618         2.37583         1.75590
   F       -2.07504         2.96540         2.68003
   C       -3.18121         1.05696         1.88177
   C       -3.99025         0.43540         0.91078
   C       -4.45557         1.19644        -0.20060
   C       -5.27005         0.59488        -1.18696
   C       -5.60527        -0.72838        -1.06690
   C       -5.12809        -1.48156         0.03931
   C       -4.34638        -0.92752         1.01142
   C       -5.60057        -2.87676        -0.06872
   O       -5.42358        -3.74095         0.76364
   C       -6.31092        -2.95785        -1.36734
   C       -6.41207        -1.60858        -1.90630
   C       -7.17720        -1.19595        -2.96494
   C       -8.04862        -2.00424        -3.72728
   N       -8.79771        -2.57370        -4.38564
   C       -7.23662         0.13983        -3.41717
   N       -7.32621         1.20472        -3.83624
   C       -6.70978        -4.06767        -2.06049
   C       -6.66457        -5.44173        -1.73996
   C       -6.33189        -6.11717        -0.58881
   C       -6.40613        -7.51677        -0.70727
   C       -6.15125        -8.48192         0.29758
   C       -5.68542        -8.12674         1.61818
   C       -6.02145        -8.71091         2.81143
   C       -5.35398        -8.14827         3.91313
   C       -4.49041        -7.14983         3.57277
   S       -4.50001        -6.87290         1.86664
   C       -3.61935        -6.33736         4.46040
   C       -6.34658        -9.81165        -0.06177
   C       -6.76477       -10.21273        -1.35883
   C       -7.05685        -9.24943        -2.35155
   C       -6.84388        -7.92225        -1.99932
   S       -7.12304        -6.55244        -3.02810
   C       -7.56607        -9.64354        -3.64546
   C       -8.48145       -10.62222        -3.92605
   C       -8.77386       -10.73455        -5.29772
   C       -8.08305        -9.85381        -6.07370
   S       -7.05609        -8.84613        -5.10897
   C       -8.13066        -9.68543        -7.54857
   C       -6.76005       -11.61614        -1.50060
   C       -6.38556       -12.26976        -0.35669
   S       -6.02265       -11.18987         0.95951
   C       -6.25529       -13.67780        -0.17071
   N       -5.90369       -14.12965         1.01782
   N       -5.72352       -15.39216         1.28505
   C       -5.84824       -16.35264         0.38925
   C       -6.24046       -16.00692        -0.94164
   C       -6.46866       -14.61582        -1.22894
   N       -6.83363       -14.52974        -2.49055
   O       -6.83208       -15.77706        -2.96024
   N       -6.47738       -16.68078        -2.04713
   C       -5.57317       -17.69526         0.78401
   C       -5.58281       -18.81293        -0.00716
   C       -5.22874       -19.98653         0.69104
   C       -5.09096       -21.29347         0.16815
   C       -5.18505       -21.54841        -1.25107
   C       -4.71155       -20.77680        -2.27810
   C       -4.93571       -21.33922        -3.54829
   C       -5.58232       -22.53667        -3.50600
   S       -5.91969       -23.00302        -1.87103
   C       -5.98033       -23.41417        -4.63616
   C       -4.80629       -22.29112         1.09048
   C       -4.58014       -22.04365         2.46995
   C       -4.65334       -20.72799         2.98015
   C       -5.00003       -19.73269         2.06925
   S       -5.15355       -18.03502         2.43860
   C       -4.36665       -20.40736         4.36038
   C       -4.98378       -19.47858         5.15487
   C       -4.41892       -19.37827         6.43924
   C       -3.35885       -20.21118         6.63411
   S       -3.04835       -21.16077         5.21989
   C       -2.51796       -20.36967         7.84831
   C       -4.30793       -23.23527         3.17388
   C       -4.24905       -24.35256         2.38058
   S       -4.62154       -23.97768         0.70893
   C       -4.01716       -25.67686         2.83371
   C       -3.64214       -26.76552         2.11226
   C       -3.89341       -28.13382         2.64154
   O       -4.16945       -28.43494         3.77902
   C       -3.79700       -29.02220         1.46334
   C       -4.05804       -30.35911         1.37417
   C       -3.92180       -31.00415         0.12430
   C       -3.52151       -30.24650        -1.01477
   C       -3.39487       -30.89590        -2.25928
   C       -3.64952       -32.23406        -2.36744
   C       -4.04287       -32.98274        -1.24010
   C       -4.17651       -32.38201        -0.01987
   F       -4.28660       -34.29357        -1.37573
   F       -3.52747       -32.84918        -3.55146
   C       -3.24947       -28.86493        -0.89092
   C       -3.37913       -28.26356         0.33198
   C       -3.12224       -26.89418         0.76620
   C       -2.30078       -25.99916         0.13440
   C       -1.81153       -24.83110         0.75898
   N       -1.33697       -23.91618         1.26376
   C       -1.78019       -26.19471        -1.15986
   N       -1.35787       -26.30333        -2.22165
   H       -4.43532         3.14605        -1.13524
   H       -2.82181         0.49373         2.72871
   H       -5.60123         1.19705        -2.01719
   H       -4.00091        -1.52320         1.84264
   H       -7.09668        -3.88705        -3.05721
   H       -6.05539        -5.60151         0.31117
   H       -6.75648        -9.48975         2.90168
   H       -5.50780        -8.47360         4.92653
   H       -3.78797        -6.60904         5.49954
   H       -3.82997        -5.27623         4.33252
   H       -2.56832        -6.49879         4.22133
   H       -8.96541       -11.21092        -3.16769
   H       -9.47570       -11.44553        -5.69591
   H       -7.13878        -9.80566        -7.98236
   H       -8.48792        -8.68955        -7.80882
   H       -8.79835       -10.42329        -7.98602
   H       -6.98582       -12.13693        -2.41287
   H       -5.85890       -18.78088        -1.04503
   H       -4.17306       -19.85914        -2.12577
   H       -4.62393       -20.87071        -4.46470
   H       -5.77156       -22.91980        -5.58167
   H       -7.04251       -23.65036        -4.58627
   H       -5.42830       -24.35359        -4.60300
   H       -5.84218       -18.91195         4.84393
   H       -4.78515       -18.70565         7.19408
   H       -2.85151       -19.68363         8.62301
   H       -1.47235       -20.16353         7.62131
   H       -2.57941       -21.38862         8.23000
   H       -4.13268       -23.28004         4.23316
   H       -4.24340       -25.86222         3.87928
   H       -4.36383       -30.91828         2.24531
   H       -3.09061       -30.33840        -3.13131
   H       -4.47846       -32.96909         0.83328
   H       -2.95281       -28.31162        -1.76783
*
