# ORCA input file
# SCF done       -233.591238972662          0.000545263790
! CAM-B3LYP def2-SVP def2/J RIJCOSX Grid4 TightSCF
%maxcore 5000
%tddft
    Mode sTDDFT
    Ethresh 5.0
    maxcore 5000
end

%pal
  nprocs 6
  end
* xyz 0 1
   C       -8.18525         2.33011         0.96571
   C       -8.67715         2.94413         2.08280
   F       -9.03260         4.23431         2.04115
   C       -8.81739         2.23052         3.29070
   F       -9.30230         2.85833         4.36989
   C       -8.46350         0.91254         3.36443
   C       -7.95347         0.25100         2.23023
   C       -7.81257         0.97108         1.00820
   C       -7.30841         0.32735        -0.14378
   C       -6.96119        -0.99749        -0.07841
   C       -7.09865        -1.70740         1.14717
   C       -7.57709        -1.10951         2.27783
   C       -6.64530        -3.10152         0.96838
   O       -6.55191        -3.94661         1.82753
   C       -6.22591        -3.20078        -0.45871
   C       -6.44379        -1.90851        -1.09266
   C       -6.27923        -1.61680        -2.41871
   C       -5.86082        -2.53217        -3.40984
   N       -5.54744        -3.21443        -4.27787
   C       -6.53566        -0.35016        -2.98768
   N       -6.72185         0.65624        -3.50664
   C       -5.59934        -4.26674        -1.00772
   C       -5.50783        -5.59550        -0.44606
   C       -4.30002        -6.28780        -0.59453
   F       -3.28988        -5.59375        -1.17134
   C       -4.11455        -7.59602        -0.17094
   O       -3.01721        -8.37000        -0.32512
   C       -1.81250        -7.81042        -0.81215
   C       -5.22277        -8.21878         0.43605
   C       -6.42615        -7.54339         0.58746
   C       -6.62424        -6.23667         0.13593
   O       -7.77918        -5.55477         0.11752
   C       -8.97827        -6.14624         0.57916
   F       -7.40922        -8.19791         1.24433
   C       -5.11230        -9.62812         0.82819
   C       -5.98475       -10.58215         0.29409
   C       -5.84055       -11.98282         0.58495
   N       -6.73890       -12.87225         0.08877
   C       -7.67811       -12.43778        -0.67570
   C       -7.77175       -11.05486        -1.03335
   N       -6.95799       -10.17691        -0.56271
   F       -8.71468       -10.64171        -1.87438
   F       -8.57235       -13.30727        -1.12888
   C       -4.78827       -12.46380         1.37060
   C       -3.93907       -11.51234         1.94162
   C       -4.10688       -10.09724         1.67931
   N       -3.19066        -9.36776         2.32801
   S       -2.22943       -10.34909         3.14134
   N       -2.89031       -11.74469         2.74054
   C       -4.62196       -13.91048         1.56511
   C       -4.70327       -14.43242         2.85404
   F       -4.89944       -13.53745         3.85064
   C       -4.63994       -15.79449         3.13419
   O       -4.71065       -16.37634         4.34967
   C       -4.85659       -15.60163         5.52554
   C       -4.53008       -16.68075         2.03367
   C       -4.46416       -16.14309         0.74678
   C       -4.45710       -14.77791         0.47626
   O       -4.29094       -14.41172        -0.81660
   C       -3.48184       -13.29242        -1.11839
   F       -4.33878       -16.98931        -0.28601
   C       -4.54049       -18.11632         2.15433
   C       -4.09139       -18.95817         3.11396
   C       -4.55797       -20.37989         3.06937
   O       -5.14736       -20.91662         2.16339
   C       -4.18587       -20.95521         4.37581
   C       -4.46961       -22.19331         4.87605
   C       -4.01843       -22.53033         6.17144
   C       -3.28516       -21.56934         6.92681
   C       -2.83876       -21.91122         8.21951
   C       -3.10502       -23.14821         8.73565
   C       -3.83023       -24.09759         7.98729
   C       -4.27819       -23.79624         6.73179
   F       -4.07745       -25.30142         8.51972
   F       -2.67781       -23.47131         9.96301
   C       -3.00460       -20.29613         6.38057
   C       -3.44287       -19.99367         5.11800
   C       -3.26747       -18.79988         4.29492
   C       -2.34431       -17.81494         4.51972
   C       -2.02044       -16.80794         3.58908
   N       -1.70820       -15.97909         2.85917
   C       -1.56221       -17.71845         5.68957
   N       -0.92184       -17.57174         6.63063
   H       -8.08556         2.88979         0.04880
   H       -8.57640         0.38135         4.29651
   H       -7.20733         0.90066        -1.05099
   H       -7.67049        -1.66961         3.19584
   H       -5.07927        -4.13949        -1.94971
   H       -1.91110        -7.47510        -1.84702
   H       -1.08487        -8.61901        -0.76323
   H       -1.47474        -6.98031        -0.18841
   H       -9.75330        -5.40872         0.37559
   H       -8.93849        -6.34336         1.65217
   H       -9.20392        -7.06986         0.04156
   H       -4.86010       -16.32445         6.34064
   H       -5.79672       -15.04702         5.52960
   H       -4.02192       -14.90961         5.65686
   H       -4.07736       -12.38412        -1.25031
   H       -2.98739       -13.52926        -2.06131
   H       -2.72831       -13.12306        -0.34660
   H       -5.02674       -18.62415         1.32383
   H       -5.02898       -22.90635         4.28984
   H       -2.27938       -21.19837         8.80502
   H       -4.83139       -24.53338         6.17121
   H       -2.45265       -19.58865         6.97851
*
