# ORCA input file
# SCF done       -261.672229316408          0.000903715566
! CAM-B3LYP def2-SVP def2/J RIJCOSX Grid4 TightSCF
%maxcore 5000
%tddft
    Mode sTDDFT
    Ethresh 5.0
    maxcore 5000
end

%pal
  nprocs 6
  end
* xyz 0 1
   C        1.58272         0.25171         0.49783
   C        1.82776        -0.35381        -0.70860
   C        2.27736        -1.68357        -0.84773
   N        2.64137        -2.75590        -1.03789
   C        1.68309         0.23518        -1.98173
   N        1.59599         0.62803        -3.05829
   C        1.75148        -0.38087         1.80231
   C        1.43715         0.57134         2.81308
   C        1.50346         0.26681         4.14159
   C        1.89279        -1.03458         4.53052
   C        2.20508        -1.99575         3.52667
   C        2.12928        -1.64861         2.15800
   C        2.58798        -3.29276         3.92468
   C        2.66024        -3.62592         5.24990
   C        2.35359        -2.67814         6.23755
   C        1.97806        -1.41004         5.88540
   C        1.05079         1.84238         2.17931
   O        0.73030         2.86483         2.75475
   C        1.12643         1.61178         0.72500
   C        0.79061         2.50751        -0.25190
   C        0.31308         3.83026        -0.16280
   C       -0.04306         4.54140        -1.29513
   C       -0.53581         5.82822        -1.03885
   C       -0.97860         6.79773        -1.97275
   C       -1.04656         6.54620        -3.39390
   C       -0.80304         7.42536        -4.41484
   C       -1.00525         6.87109        -5.69217
   C       -1.42127         5.57478        -5.66418
   S       -1.55662         5.00451        -4.03483
   C       -1.73313         4.67458        -6.80386
   C       -1.37622         8.01866        -1.44151
   C       -1.33958         8.31635        -0.05415
   C       -0.88281         7.35625         0.87310
   C       -0.51168         6.11914         0.35275
   S        0.06658         4.77105         1.29131
   C       -0.78936         7.62549         2.29281
   C       -1.04569         6.77851         3.33514
   C       -0.79044         7.35014         4.59671
   C       -0.32332         8.62659         4.53145
   S       -0.20599         9.15963         2.88707
   C        0.06729         9.53047         5.64497
   C       -1.88647         9.59035         0.22079
   C       -2.33791        10.25007        -0.88820
   S       -2.05695         9.33897        -2.35530
   C       -3.01682        11.51550        -0.97651
   C       -3.51766        12.23043         0.09914
   O       -3.30858        11.77286         1.37431
   C       -4.41993        11.15739         2.00372
   C       -4.23989        13.47408        -0.04404
   O       -4.67890        13.94547         1.14574
   C       -5.82235        14.76773         1.23449
   C       -4.45071        14.06268        -1.28052
   C       -3.99090        13.32079        -2.39708
   C       -3.27937        12.08165        -2.25298
   N       -2.97541        11.66100        -3.46157
   O       -3.45657        12.57092        -4.30624
   N       -4.06776        13.58080        -3.68698
   C       -5.03475        15.36476        -1.53970
   C       -4.71663        16.55625        -0.96398
   C       -5.44703        17.65303        -1.48978
   C       -5.35231        19.00990        -1.12171
   C       -4.51492        19.47102        -0.03300
   C       -3.78474        20.62274         0.04194
   C       -3.13867        20.79835         1.28237
   C       -3.38037        19.79668         2.16944
   S       -4.41345        18.59189         1.47169
   C       -2.88706        19.64786         3.56289
   C       -6.14820        19.89867        -1.83662
   C       -7.02651        19.49495        -2.87644
   C       -7.10874        18.13473        -3.25549
   C       -6.32284        17.24803        -2.52705
   S       -6.22812        15.53008        -2.80224
   C       -7.94075        17.71630        -4.35857
   C       -8.16857        18.36497        -5.54355
   C       -9.01786        17.65343        -6.41078
   C       -9.44971        16.46677        -5.90056
   S       -8.79298        16.19402        -4.32094
   C      -10.35636        15.46660        -6.52103
   C       -7.78404        20.56976        -3.38012
   C       -7.49037        21.77906        -2.80015
   S       -6.26755        21.60860        -1.54448
   C       -8.03977        23.06282        -3.01412
   C       -8.71300        23.53485        -4.10633
   C       -9.32089        24.85196        -4.18414
   C       -9.63516        25.66672        -3.12738
   C      -10.24609        26.93059        -3.26186
   N      -10.73442        27.96908        -3.30180
   C       -9.43911        25.35116        -1.76633
   N       -9.34175        25.16539        -0.63708
   C       -9.62798        25.12386        -5.58248
   C       -9.29340        23.97099        -6.34659
   C       -8.75813        22.92428        -5.45844
   O       -8.38997        21.82032        -5.80460
   C       -9.47505        23.92217        -7.69842
   C      -10.01447        25.04711        -8.36137
   C      -10.35051        26.20625        -7.60434
   C      -10.14692        26.22784        -6.20511
   C      -10.88795        27.32278        -8.27624
   C      -11.08528        27.29737        -9.63011
   C      -10.75277        26.15592       -10.37461
   C      -10.22904        25.05465        -9.75355
   H        1.26021         1.00968         4.88683
   H        2.37233        -2.40088         1.42472
   H        2.82327        -4.01893         3.16039
   H        2.95451        -4.62221         5.54446
   H        2.41659        -2.95774         7.27864
   H        1.74045        -0.67583         6.64147
   H        0.87685         2.16625        -1.27670
   H        0.06450         4.12117        -2.27863
   H       -0.45211         8.42890        -4.25834
   H       -0.84903         7.41889        -6.60432
   H       -1.59949         5.20524        -7.74340
   H       -2.76114         4.31784        -6.74339
   H       -1.07876         3.80303        -6.79492
   H       -1.43415         5.78475         3.20885
   H       -0.94515         6.82644         5.52327
   H       -0.13936         9.05389         6.60030
   H       -0.48192        10.46992         5.59121
   H        1.13080         9.76461         5.59391
   H       -1.95350        10.00927         1.20560
   H       -5.25433        11.85058         2.12609
   H       -4.06456        10.84211         2.98262
   H       -4.75173        10.28193         1.43501
   H       -6.25666        14.55880         2.21336
   H       -6.54924        14.53331         0.45374
   H       -5.56419        15.82790         1.17998
   H       -3.93996        16.65459        -0.22736
   H       -3.68264        21.30999        -0.77815
   H       -2.51589        21.64557         1.50809
   H       -2.22639        20.47492         3.81157
   H       -2.34184        18.71183         3.68226
   H       -3.71954        19.64023         4.26668
   H       -7.71614        19.30392        -5.80578
   H       -9.29688        18.01154        -7.38575
   H      -10.60414        15.76837        -7.53574
   H      -11.27858        15.37466        -5.94708
   H       -9.88366        14.48561        -6.54925
   H       -8.55966        20.45192        -4.11041
   H       -7.85659        23.76131        -2.20552
   H       -9.21255        23.03483        -8.25537
   H      -10.40384        27.12290        -5.66124
   H      -11.14355        28.19898        -7.69859
   H      -11.49961        28.15710       -10.13505
   H      -10.91378        26.15341       -11.44238
   H       -9.97090        24.17265       -10.32149
*
