# ORCA input file
# SCF done       -248.095004571663          0.000659522677
! CAM-B3LYP def2-SVP def2/J RIJCOSX Grid4 TightSCF
%maxcore 5000
%tddft
    Mode sTDDFT
    Ethresh 5.0
    maxcore 5000
end

%pal
  nprocs 6
  end
* xyz 0 1
   C        2.55341       -19.37321         3.89802
   C        2.77715       -20.54052         4.55935
   S        4.38619       -21.10456         4.28618
   C        4.77985       -19.74671         3.26105
   C        6.11223       -19.59006         2.63639
   C        3.69690       -18.92904         3.16175
   C        3.39234       -17.67168         2.47792
   O        4.16252       -17.02450         1.79686
   C        1.96952       -17.38034         2.81348
   C        1.47912       -18.42012         3.71390
   C        0.25319       -18.53186         4.31818
   C       -0.04008       -19.62287         5.16348
   N       -0.30009       -20.50316         5.85260
   C       -0.83496       -17.64280         4.22091
   N       -1.76934       -16.97425         4.20717
   C        1.17410       -16.35773         2.37580
   C        1.41442       -15.27820         1.49773
   C        2.52821       -14.87490         0.79934
   C        2.32476       -13.72889         0.01111
   C        3.26237       -13.09037        -0.83820
   C        4.59358       -13.61082        -1.05718
   C        5.75625       -12.90448        -1.21216
   C        6.87526       -13.72077        -1.45699
   C        6.57698       -15.04908        -1.51120
   S        4.89015       -15.31874        -1.24125
   C        7.49279       -16.19422        -1.75263
   C        2.82632       -11.93868        -1.47849
   C        1.50963       -11.42421        -1.34468
   C        0.55783       -12.07781        -0.52658
   C        1.00722       -13.20982         0.14568
   S        0.05130       -14.20063         1.20447
   C       -0.80719       -11.61875        -0.40574
   C       -1.60795       -11.63047         0.70558
   C       -2.90082       -11.12980         0.46861
   C       -3.10926       -10.74998        -0.82325
   S       -1.68830       -10.99669        -1.77820
   C       -4.33112       -10.17032        -1.43665
   C        1.32754       -10.25353        -2.10258
   C        2.42824        -9.88297        -2.83634
   S        3.77334       -10.97200        -2.58108
   C        2.56392        -8.78622        -3.73946
   C        1.53295        -7.87050        -4.05987
   C        1.70940        -6.82302        -5.03588
   N        0.68953        -5.96854        -5.26801
   C       -0.43072        -6.11136        -4.64010
   C       -0.61520        -7.15941        -3.70838
   N        0.33965        -7.98626        -3.43881
   F       -1.77519        -7.32851        -3.06993
   F       -1.39849        -5.22988        -4.89907
   C        2.91743        -6.65288        -5.75325
   C        3.95746        -7.53425        -5.39331
   C        3.78417        -8.57437        -4.41384
   N        4.89846        -9.28886        -4.25195
   S        6.04177        -8.71462        -5.22090
   N        5.19035        -7.53626        -5.90158
   C        3.12062        -5.68653        -6.78357
   C        2.20293        -4.84025        -7.35750
   C        2.73360        -4.02486        -8.37387
   C        2.04912        -3.04660        -9.13548
   C        0.70277        -2.64988        -8.80340
   C        0.14562        -2.53175        -7.55613
   C       -1.18532        -2.07996        -7.57897
   C       -1.66023        -1.85029        -8.83506
   S       -0.44791        -2.18236       -10.02802
   C       -3.00246        -1.36320        -9.24255
   C        2.77311        -2.47307       -10.17364
   C        4.14804        -2.73565       -10.40823
   C        4.85280        -3.64669        -9.58596
   C        4.10538        -4.29744        -8.61074
   S        4.70144        -5.51559        -7.51324
   C        6.27152        -3.88726        -9.72957
   C        6.95225        -5.06331        -9.56715
   C        8.34463        -4.92990        -9.72315
   C        8.74323        -3.65507        -9.98799
   S        7.38381        -2.58521       -10.06612
   C       10.12038        -3.13987       -10.20191
   C        4.63003        -2.02176       -11.52354
   C        3.70096        -1.19609       -12.10638
   S        2.14380        -1.32202       -11.31395
   C        3.90817        -0.43087       -13.28241
   C        3.14033         0.55776       -13.80951
   C        3.25823         0.87765       -15.26627
   O        4.15669         0.55065       -16.00862
   C        2.02292         1.60018       -15.57925
   C        1.43250         2.09745       -16.70001
   S       -0.08450         2.84910       -16.27191
   C        0.11342         2.49365       -14.59238
   C        1.27477         1.82453       -14.37453
   C        2.03427         1.31515       -13.25100
   C        1.87157         1.70933       -11.94931
   C        0.75681         2.47064       -11.54890
   N       -0.16527         3.06767       -11.21589
   C        2.82975         1.48545       -10.94011
   N        3.62353         1.38756       -10.11673
   C        1.92442         2.05784       -18.09514
   H        2.12299       -21.11384         5.18466
   H        6.33277       -20.43382         1.98304
   H        6.89120       -19.54492         3.39693
   H        6.12363       -18.67116         2.05455
   H        0.15660       -16.36576         2.75001
   H        3.46308       -15.39739         0.87464
   H        5.81484       -11.83604        -1.11382
   H        7.87069       -13.33520        -1.58908
   H        8.51432       -15.83797        -1.86195
   H        7.20876       -16.73080        -2.65785
   H        7.45074       -16.89837        -0.92222
   H       -1.26950       -11.94582         1.67578
   H       -3.65329       -11.05393         1.23309
   H       -5.12104       -10.09320        -0.69369
   H       -4.68113       -10.79109        -2.26103
   H       -4.12112        -9.17751        -1.83467
   H        0.42362        -9.67839        -2.11986
   H        1.16980        -4.84308        -7.07186
   H        0.68967        -2.71361        -6.64748
   H       -1.77253        -1.93073        -6.69061
   H       -3.65921        -1.31702        -8.37738
   H       -3.44315        -2.02331        -9.98848
   H       -2.92948        -0.36740        -9.68061
   H        6.46877        -6.00400        -9.37817
   H        9.02979        -5.75470        -9.63912
   H       10.21059        -2.67656       -11.18413
   H       10.83724        -3.95421       -10.12997
   H       10.36886        -2.38527        -9.45587
   H        5.63556        -2.09614       -11.89550
   H        4.74927        -0.74128       -13.89517
   H       -0.64453         2.79385       -13.89690
   H        2.88407         1.54649       -18.12028
   H        2.04461         3.06649       -18.48948
   H        1.21889         1.53136       -18.73744
*
