# ORCA input file
# SCF done       -246.877101203980          0.000821115016
! CAM-B3LYP def2-SVP def2/J RIJCOSX Grid4 TightSCF
%maxcore 5000
%tddft
    Mode sTDDFT
    Ethresh 5.0
    maxcore 5000
end

%pal
  nprocs 6
  end
* xyz 0 1
   C        2.01377       -15.57739        16.58305
   C        2.39526       -14.32957        17.30158
   N        1.80545       -13.90891        18.39787
   S        2.50302       -12.52642        18.88621
   N        3.59823       -12.43522        17.69095
   C        3.44592       -13.46629        16.89144
   C        4.27091       -13.68173        15.66128
   C        4.19350       -15.13168        15.29692
   C        3.14165       -15.99500        15.70410
   N        3.28439       -17.21129        15.22767
   S        4.63239       -17.27960        14.32494
   N        5.07667       -15.73174        14.53195
   C        3.71908       -12.85809        14.53447
   C        4.35063       -11.90415        13.81625
   C        3.53495       -11.31841        12.80628
   C        3.86318       -10.27369        11.92122
   C        5.19052        -9.69736        11.84334
   C        5.52729        -8.39614        11.60323
   C        6.92163        -8.20297        11.50020
   C        7.66434        -9.33766        11.64663
   S        6.62193       -10.68967        11.93268
   C        9.13866        -9.50329        11.58812
  Cl        7.61160        -6.65285        11.20748
   C        2.84710        -9.82867        11.07956
   C        1.54940       -10.39874        11.06374
   C        1.21728       -11.44698        11.94999
   C        2.23420       -11.87539        12.79735
   S        2.07306       -13.11045        14.01780
   C       -0.10226       -12.03719        11.99637
   C       -0.43100       -13.34549        12.22038
   C       -1.82439       -13.56234        12.24174
   C       -2.57552       -12.43781        12.05168
   S       -1.54340       -11.06927        11.82960
   C       -4.05199       -12.29685        12.00362
  Cl       -2.50550       -15.12446        12.48987
   C        0.74070        -9.83376        10.05634
   C        1.35700        -8.84304         9.33674
   S        2.99697        -8.56841         9.88618
   C        0.82972        -8.05953         8.26407
   C       -0.44640        -8.24362         7.68303
   C       -0.91598        -7.43571         6.58329
   N       -2.14511        -7.67495         6.07602
   C       -2.88123        -8.60981         6.57575
   C       -2.42362        -9.39799         7.65900
   N       -1.25469        -9.20920         8.17275
   F       -3.18361       -10.35681         8.19326
   F       -4.08587        -8.80377         6.03350
   C       -0.14304        -6.38821         6.03089
   C        1.11159        -6.18282         6.63830
   C        1.59289        -7.00986         7.71393
   N        2.81233        -6.64009         8.10986
   S        3.29700        -5.38781         7.23304
   N        1.99903        -5.24434         6.30349
   C       -0.56651        -5.55460         4.95035
   C       -1.64738        -5.71938         4.12397
   C       -1.80535        -4.69051         3.17319
   C       -2.82401        -4.55889         2.20302
   C       -3.92019        -5.49675         2.10024
   C       -4.53826        -5.94595         0.96540
   C       -5.59091        -6.84314         1.23815
   C       -5.80404        -7.07995         2.56687
   S       -4.67744        -6.17877         3.51575
   C       -6.81401        -7.95906         3.20739
  Cl       -6.52039        -7.57963        -0.00986
   C       -2.72114        -3.46328         1.35004
   C       -1.69106        -2.49930         1.45184
   C       -0.70841        -2.60304         2.45453
   C       -0.77244        -3.72336         3.27394
   S        0.34471        -4.11319         4.55155
   C        0.28202        -1.55926         2.62945
   C        0.08339        -0.20952         2.56503
   C        1.26859         0.52620         2.78061
   C        2.37342        -0.24069         3.00975
   S        1.95067        -1.92085         2.96864
   C        3.76842         0.19413         3.27397
  Cl        1.29389         2.24924         2.74755
   C       -1.81041        -1.49560         0.45186
   C       -2.90215        -1.64517        -0.33370
   S       -3.83699        -3.05179         0.07234
   C       -3.30681        -0.77621        -1.49154
   C       -2.64189        -1.29660        -2.72907
   N       -3.07847        -2.34081        -3.39618
   S       -2.07796        -2.63341        -4.63925
   N       -1.05186        -1.40965        -4.34634
   C       -1.45366        -0.75078        -3.28198
   C       -0.74510         0.44088        -2.73724
   C       -1.64912         1.16907        -1.80322
   C       -2.83863         0.62303        -1.25254
   N       -3.46179         1.46575        -0.45934
   S       -2.62492         2.85487        -0.39598
   N       -1.43237         2.40126        -1.39867
   H        1.12317       -15.38940        15.97194
   H        1.75645       -16.36959        17.28851
   H        5.30806       -13.37915        15.83105
   H        5.36564       -11.61086        14.00740
   H        4.81923        -7.59241        11.53079
   H        9.41965       -10.14595        10.75397
   H        9.51087        -9.96149        12.50354
   H        9.61091        -8.53264        11.45925
   H        0.28454       -14.13995        12.32254
   H       -4.51905       -13.26825        12.14502
   H       -4.36209       -11.88909        11.04173
   H       -4.39931       -11.61931        12.78327
   H       -0.26199       -10.14447         9.84178
   H       -2.29209        -6.57114         4.20489
   H       -4.23524        -5.68764        -0.03206
   H       -7.20132        -8.66791         2.47838
   H       -7.64729        -7.36967         3.59352
   H       -6.36965        -8.50080         4.04072
   H       -0.87565         0.25202         2.41740
   H        4.45121        -0.23998         2.54483
   H        4.08750        -0.12759         4.26486
   H        3.83145         1.27796         3.21766
   H       -1.09453        -0.70393         0.32810
   H       -4.39479        -0.81304        -1.60126
   H       -0.41719         1.09748        -3.54602
   H        0.15888         0.12190        -2.20540
*
