# ORCA input file
# SCF done       -214.559849722504          0.000396205656
! CAM-B3LYP def2-SVP def2/J RIJCOSX Grid4 TightSCF
%maxcore 5000
%tddft
    Mode sTDDFT
    Ethresh 5.0
    maxcore 5000
end

%pal
  nprocs 6
  end
* xyz 0 1
   C       -5.79608         0.86150        -0.25488
   C       -6.14596         2.03086        -0.87135
   C       -7.42434         2.27932        -1.41708
   N       -8.44523         2.53349        -1.87404
   C       -5.25449         3.09894        -1.09352
   N       -4.54988         3.98191        -1.29623
   C       -6.62506        -0.33426        -0.17852
   C       -5.79225        -1.45553         0.11092
   C       -6.29887        -2.72068         0.20748
   C       -7.68445        -2.92355         0.02400
   C       -8.52491        -1.80450        -0.24885
   C       -7.97336        -0.50708        -0.34665
   C       -9.90725        -2.02009        -0.42327
   C      -10.43558        -3.27920        -0.33567
   C       -9.60767        -4.37998        -0.06775
   C       -8.26166        -4.20625         0.10790
   C       -4.40581        -1.00242         0.28411
   O       -3.41342        -1.66019         0.47916
   C       -4.47400         0.49938         0.23142
   C       -3.41798         1.20095         0.69134
   C       -3.30809         2.59644         1.04565
   C       -4.34262         3.33880         1.62976
   F       -5.51691         2.74342         1.88763
   C       -4.17383         4.66271         1.98260
   F       -5.19843         5.30999         2.55414
   C       -2.97220         5.35691         1.75612
   C       -1.92382         4.59801         1.20945
   C       -2.08567         3.26322         0.88512
   F       -1.05022         2.58750         0.37800
   F       -0.71866         5.14731         1.03409
   C       -2.89630         6.74832         2.11024
   C       -1.94642         7.63031         1.71626
   C       -1.95404         8.99866         2.09955
   C       -1.48718        10.07801         1.37360
   N       -0.76763        10.06470         0.15825
   O       -0.41225        11.14070        -0.28452
   O       -0.52658         8.99173        -0.36380
   C       -1.87905        11.30272         2.02644
   C       -2.61684        11.00074         3.12227
   C       -2.65059         9.56833         3.27432
   C       -3.01432         8.85770         4.39720
   C       -2.29905         7.71222         4.89906
   C       -2.67346         7.48983         6.18357
   C       -3.73888         8.39396         6.51934
   N       -4.33553         8.41435         7.78397
   O       -5.24386         9.20991         8.00000
   O       -3.88732         7.66081         8.63175
   C       -3.99797         9.22490         5.43079
   C       -5.06859        10.13639         5.29827
   C       -5.40058        10.76246         4.13994
   C       -6.31402        11.84896         3.93279
   C       -6.63297        12.15661         2.59704
   C       -6.13127        11.55667         1.33556
   O       -5.33646        10.66859         1.17744
   O       -6.71866        12.19845         0.30710
   C       -7.60403        13.21018         0.75569
   C       -7.51973        13.16346         2.24640
   C       -8.15249        13.91795         3.21809
   C       -7.84150        13.64945         4.53926
   C       -6.91791        12.66890         4.91782
   C       -6.67869        12.57522         6.35644
   C       -5.49100        12.61622         6.98301
   C       -5.25321        12.35090         8.40211
   C       -6.10633        12.62438         9.42845
   C       -5.80060        12.37715        10.78490
   N       -5.58580        12.20949        11.89868
   C       -7.35921        13.24912         9.24417
   N       -8.37401        13.77108         9.12449
   C       -3.93116        11.75412         8.48770
   C       -3.27279        11.90829         7.23017
   C       -4.15964        12.62104         6.30140
   O       -3.89250        13.09967         5.22232
   C       -2.04793        11.35068         6.98913
   C       -1.44000        10.56954         7.99524
   C       -2.08803        10.42224         9.25826
   C       -3.33415        11.04369         9.49596
   C       -1.48236         9.61476        10.24226
   C       -0.30058         8.97390         9.98934
   C        0.33468         9.11678         8.74600
   C       -0.22041         9.90000         7.77133
   H       -5.64948        -3.55641         0.42145
   H       -8.63371         0.32354        -0.54003
   H      -10.53989        -1.17017        -0.63233
   H      -11.49510        -3.43439        -0.47285
   H      -10.04206        -5.36606        -0.00079
   H       -7.61961        -5.04983         0.31440
   H       -2.51600         0.61599         0.85269
   H       -3.73219         7.10711         2.69609
   H       -1.18790         7.35033         0.99767
   H       -1.61206        12.27743         1.66496
   H       -3.00726        11.70605         3.83045
   H       -1.49566         7.22998         4.37774
   H       -2.26943         6.77089         6.87055
   H       -5.65681        10.28550         6.19273
   H       -4.93932        10.41415         3.22446
   H       -8.60992        12.99208         0.37996
   H       -7.27872        14.17147         0.34330
   H       -8.85822        14.69157         2.96089
   H       -8.30619        14.23617         5.31836
   H       -7.57902        12.50299         6.95616
   H       -1.56375        11.47020         6.03082
   H       -3.81712        10.89693        10.44899
   H       -1.97939         9.50140        11.19350
   H        0.15006         8.34912        10.74522
   H        1.26538         8.60101         8.56341
   H        0.26159        10.01281         6.81106
*
