# ORCA input file
# SCF done       -222.875260334789          0.000820489508
! CAM-B3LYP def2-SVP def2/J RIJCOSX Grid4 TightSCF
%maxcore 5000
%tddft
    Mode sTDDFT
    Ethresh 5.0
    maxcore 5000
end

%pal
  nprocs 6
  end
* xyz 0 1
   C       -9.72678         1.56973         2.08096
   C      -11.06547         1.64355         1.81598
   F      -11.66613         2.83494         1.71114
   C      -11.83026         0.47065         1.64971
   F      -13.13952         0.57396         1.39003
   C      -11.24512        -0.76032         1.75127
   C       -9.86747        -0.86933         2.02338
   C       -9.09303         0.31554         2.19217
   C       -7.70920         0.23070         2.46670
   C       -7.11787        -1.00134         2.57228
   C       -7.89845        -2.17836         2.39814
   C       -9.23623        -2.12813         2.12915
   C       -7.03720        -3.36766         2.53208
   O       -7.36401        -4.52148         2.36629
   C       -5.67156        -2.84174         2.80652
   C       -5.73939        -1.39176         2.85009
   C       -4.71500        -0.53955         3.16628
   C       -3.40734        -0.94036         3.51631
   N       -2.33296        -1.19316         3.83115
   C       -4.84255         0.86545         3.21167
   N       -4.88567         2.01108         3.26058
   C       -4.54567        -3.60912         2.82133
   C       -4.48962        -5.02667         2.89801
   C       -3.49685        -5.80280         2.34078
   C       -3.76542        -7.17696         2.61835
   C       -4.99051        -7.19638         3.43173
   C       -5.41817        -5.91618         3.58946
   C       -5.66661        -8.32664         3.91208
   N       -6.27182        -9.22669         4.28840
   C       -3.02780        -8.26819         2.21267
   C       -3.19854        -9.62138         2.60431
   C       -2.28233       -10.41153         1.92769
   C       -1.49248        -9.53804         1.07097
   C       -1.90789        -8.25771         1.25449
   C       -1.37247        -7.14590         0.59323
   N       -0.90896        -6.25906         0.02978
   C       -2.16851       -11.81083         2.10331
   N       -1.52873       -12.70043         1.28012
   C       -0.87996       -12.43645         0.02370
   C       -1.63782       -14.02547         1.74892
   O       -1.17404       -14.97979         1.16290
   C       -2.38665       -13.90931         2.98224
   C       -2.70695       -12.55336         3.16759
   C       -3.41332       -12.42429         4.43092
   O       -3.84753       -11.47032         5.03221
   N       -3.49931       -13.74867         4.90766
   C       -4.15659       -14.05131         6.15031
   C       -2.89319       -14.64598         4.06788
   C       -2.83247       -16.03013         4.31498
   C       -2.19157       -16.90140         3.47786
   C       -2.10507       -18.29446         3.67767
   C       -1.42135       -19.17743         2.85856
   C       -1.56936       -20.49623         3.36181
   C       -2.40331       -20.37943         4.57653
   C       -2.70593       -19.06938         4.75813
   C       -2.78354       -21.42134         5.43042
   N       -3.10635       -22.26262         6.14366
   C       -1.02834       -21.66408         2.87324
   C       -1.22315       -22.97194         3.40306
   C       -0.39620       -23.85674         2.74803
   C        0.31787       -23.11505         1.71737
   C       -0.04951       -21.80856         1.78315
   C        0.44293       -20.78359         0.96638
   N        0.85214       -19.96440         0.27373
   C       -0.25979       -25.24974         2.97041
   C       -0.60432       -25.97146         4.07151
   C       -0.75281       -27.45280         3.93565
   O       -0.37059       -28.12954         3.01088
   C       -1.50624       -27.87840         5.12974
   C       -2.01978       -29.10785         5.42940
   C       -2.74963       -29.27229         6.62766
   C       -2.94652       -28.15183         7.48710
   C       -3.68709       -28.32052         8.67440
   C       -4.20238       -29.54455         8.99651
   C       -4.00432       -30.65266         8.14759
   C       -3.29414       -30.52075         6.98745
   F       -4.52149       -31.84009         8.48865
   F       -4.90337       -29.70432        10.12586
   C       -2.39861       -26.89233         7.15324
   C       -1.67576       -26.76242         5.99779
   C       -0.97847       -25.61215         5.42608
   C       -0.55898       -24.52729         6.14816
   C        0.27789       -23.50803         5.65363
   N        0.97310       -22.65873         5.31671
   C       -0.84345       -24.34060         7.51916
   N       -1.02458       -24.14938         8.63535
   H       -9.15673         2.47708         2.20602
   H      -11.84356        -1.64835         1.62102
   H       -7.15043         1.14524         2.58215
   H       -9.80374        -3.03726         2.00032
   H       -3.58380        -3.11983         2.72146
   H       -2.66430        -5.44138         1.76875
   H       -6.27000        -5.60149         4.15929
   H       -3.91357        -9.96528         3.32548
   H       -0.68639        -9.83783         0.43066
   H       -1.51296       -11.82485        -0.61965
   H       -0.70737       -13.40412        -0.44979
   H        0.08565       -11.94901         0.17209
   H       -4.52404       -13.10623         6.55073
   H       -3.46064       -14.49677         6.86364
   H       -5.00118       -14.72424         5.99216
   H       -3.31355       -16.39336         5.21159
   H       -1.70330       -16.51656         2.59168
   H       -0.87162       -18.91130         1.97667
   H       -3.29007       -18.66899         5.56552
   H       -1.94328       -23.22033         4.15642
   H        1.03608       -23.54572         1.04453
   H        0.11189       -25.83818         2.13610
   H       -1.87349       -29.94245         4.76078
   H       -3.84443       -27.48348         9.33645
   H       -3.15229       -31.37821         6.34843
   H       -2.57472       -26.05684         7.81158
*
