# ORCA input file
# SCF done       -233.864846259589          0.000502587497
! CAM-B3LYP def2-SVP def2/J RIJCOSX Grid4 TightSCF
%maxcore 5000
%tddft
    Mode sTDDFT
    Ethresh 5.0
    maxcore 5000
end

%pal
  nprocs 6
  end
* xyz 0 1
   C       -3.96693        -0.56285        -4.73734
   C       -3.03429        -0.96056        -5.65383
   F       -2.24531        -0.05714        -6.24782
   C       -2.89068        -2.32307        -5.98588
   F       -1.96839        -2.68518        -6.88733
   C       -3.68206        -3.26874        -5.39681
   C       -4.65255        -2.89061        -4.44853
   C       -4.79948        -1.51319        -4.11264
   C       -5.77000        -1.10999        -3.16749
   C       -6.56953        -2.05466        -2.57994
   C       -6.41109        -3.42949        -2.91427
   C       -5.48060        -3.84797        -3.82210
   C       -7.36377        -4.24141        -2.13505
   O       -7.45272        -5.45180        -2.13163
   C       -8.10793        -3.27389        -1.29067
   C       -7.65222        -1.93495        -1.61063
   C       -8.21731        -0.76993        -1.16795
   C       -7.75249         0.51531        -1.51740
   N       -7.40726         1.58044        -1.76833
   C       -9.37491        -0.71335        -0.36146
   N      -10.34524        -0.60932         0.24225
   C       -8.92028        -3.63903        -0.26156
   C       -9.44150        -4.94880        -0.07220
   C       -9.43568        -5.67907         1.11074
   N       -8.89152        -5.24936         2.33250
   O       -9.04381        -5.96803         3.30334
   O       -8.29971        -4.18042         2.34881
   C       -9.99191        -6.97771         0.87705
   C      -10.31204        -7.07036        -0.44137
   C      -10.00443        -5.82333        -1.08957
   C      -10.35823        -5.44267        -2.37606
   C      -10.75838        -4.14658        -2.78952
   C      -11.31149        -4.23056        -4.03938
   C      -11.22439        -5.57654        -4.49958
   N      -11.59323        -5.96531        -5.78121
   O      -11.37439        -7.12496        -6.13431
   O      -12.10749        -5.13427        -6.51309
   C      -10.59260        -6.35530        -3.51471
   C      -10.16230        -7.68090        -3.62028
   C       -9.13156        -8.20275        -2.86907
   C       -8.72866        -9.54191        -2.75717
   C       -7.94868        -9.94848        -1.67430
   C       -7.93401       -11.35536        -1.59473
   O       -7.15724       -11.94220        -0.67633
   C       -6.76520       -13.29193        -0.79132
   C       -8.72642       -11.87365        -2.63925
   C       -9.17765       -10.76202        -3.43746
   C       -9.83388       -10.88038        -4.65019
   C       -9.80059        -9.99623        -5.75948
   C      -10.51079       -10.57256        -6.78569
   O      -10.71288       -10.19876        -8.02893
   C      -10.21163        -8.93863        -8.44141
   C      -11.09031       -11.83967        -6.30475
   C      -10.66818       -12.03330        -5.05034
   C       -8.97878       -13.25112        -2.96648
   C       -9.42647       -14.17101        -2.08431
   C       -9.72259       -15.52624        -2.41227
   S      -10.40970       -16.57564        -1.20722
   C      -10.49549       -17.91110        -2.31279
   C       -9.99541       -17.53048        -3.56262
   C       -9.56622       -16.19543        -3.60816
   C       -9.89910       -18.36198        -4.69207
   N       -9.77951       -18.99980        -5.63860
   C      -11.06037       -19.13510        -1.88293
   C      -11.26103       -20.21522        -2.68121
   C      -11.89674       -21.40035        -2.24601
   C      -12.35888       -22.38891        -3.06121
   C      -12.64370       -23.74762        -2.52439
   O      -12.75852       -24.05766        -1.36188
   C      -12.68844       -24.62592        -3.71153
   C      -12.79952       -25.98550        -3.76735
   C      -12.78410       -26.62508        -5.02710
   C      -12.64574       -25.83984        -6.20868
   C      -12.62036       -26.48505        -7.46147
   C      -12.73084       -27.84505        -7.53801
   C      -12.87013       -28.62050        -6.36901
   C      -12.89641       -28.02468        -5.13926
   F      -12.97558       -29.95152        -6.47422
   F      -12.70730       -28.45654        -8.72882
   C      -12.54034       -24.43288        -6.12081
   C      -12.56965       -23.83362        -4.89009
   C      -12.51756       -22.42634        -4.50043
   C      -12.79884       -21.36530        -5.32018
   C      -13.02815       -20.04742        -4.87022
   N      -13.27976       -18.97329        -4.55304
   C      -13.01738       -21.49055        -6.70915
   N      -13.19943       -21.54399        -7.84059
   H       -4.06488         0.48392        -4.49556
   H       -3.55879        -4.30722        -5.66151
   H       -5.85414        -0.06230        -2.92757
   H       -5.37880        -4.89597        -4.06020
   H       -9.14781        -2.91972         0.51737
   H      -10.11435        -7.72102         1.64106
   H      -10.81272        -7.89019        -0.91882
   H      -10.74096        -3.27201        -2.16775
   H      -11.74923        -3.43339        -4.61089
   H      -10.65179        -8.28911        -4.36775
   H       -8.57138        -7.51393        -2.24900
   H       -7.46737        -9.29937        -0.96807
   H       -5.85342       -13.38086        -0.20090
   H       -6.55872       -13.56256        -1.82912
   H       -7.52010       -13.96980        -0.38542
   H       -9.22317        -9.09558        -5.81102
   H      -10.55021        -8.79890        -9.46553
   H       -9.11918        -8.92851        -8.40676
   H      -10.60771        -8.14872        -7.79967
   H      -11.74237       -12.45083        -6.89747
   H      -10.96691       -12.81750        -4.38275
   H       -8.86112       -13.52470        -4.00646
   H       -9.64183       -13.87506        -1.06628
   H       -9.16041       -15.74877        -4.49811
   H      -11.40515       -19.16488        -0.85701
   H      -10.92380       -20.17991        -3.70586
   H      -11.97914       -21.57912        -1.17964
   H      -12.89603       -26.56592        -2.86244
   H      -12.51779       -25.90601        -8.36590
   H      -13.00314       -28.63234        -4.25435
   H      -12.42771       -23.86325        -7.02938
*
