# ORCA input file
# SCF done       -226.218859089557          0.000461175649
! CAM-B3LYP def2-SVP def2/J RIJCOSX Grid4 TightSCF
%maxcore 5000
%tddft
    Mode sTDDFT
    Ethresh 5.0
    maxcore 5000
end

%pal
  nprocs 6
  end
* xyz 0 1
   C       -4.91290        -0.52624        -0.29751
   C       -5.23817        -0.43134         1.02651
   F       -4.89756         0.65731         1.72749
   C       -5.93473        -1.47396         1.67062
   F       -6.23930        -1.35461         2.96974
   C       -6.29712        -2.59681         0.98112
   C       -5.97748        -2.72400        -0.38479
   C       -5.27342        -1.67037        -1.03737
   C       -4.94857        -1.77236        -2.40935
   C       -5.32221        -2.89037        -3.10732
   C       -6.01907        -3.94050        -2.44683
   C       -6.34096        -3.87270        -1.12145
   C       -6.30179        -5.02631        -3.40302
   O       -6.81548        -6.09483        -3.14315
   C       -5.73610        -4.57340        -4.69789
   C       -5.16572        -3.25276        -4.51160
   C       -4.67466        -2.44216        -5.50022
   C       -4.70306        -2.75361        -6.87722
   N       -4.75468        -2.91545        -8.01237
   C       -4.13393        -1.15952        -5.27143
   N       -3.67753        -0.11476        -5.13958
   C       -5.59404        -5.35032        -5.81094
   C       -6.28082        -6.55190        -6.10880
   C       -5.76724        -7.64720        -6.81065
   N       -4.44784        -7.81087        -7.25213
   O       -4.20810        -8.79633        -7.93543
   O       -3.61752        -6.97373        -6.94834
   C       -6.77626        -8.64696        -6.95310
   C       -7.88788        -8.22305        -6.29579
   C       -7.64482        -6.90458        -5.76743
   C       -8.64401        -6.10152        -5.23704
   C       -8.88648        -4.72154        -5.39446
   C      -10.17338        -4.45541        -4.98636
   C      -10.76968        -5.64655        -4.48533
   N      -12.04871        -5.71201        -3.92566
   O      -12.44552        -6.79379        -3.50967
   O      -12.70829        -4.68616        -3.89088
   C       -9.82763        -6.68000        -4.56228
   C       -9.84249        -7.94596        -3.97977
   C       -8.68725        -8.59461        -3.58883
   C       -8.63178        -9.88479        -3.05374
   S       -7.26128       -10.39890        -2.11013
   C       -7.98989       -11.93367        -1.76185
   C       -9.21051       -12.07129        -2.42916
   C       -9.59019       -10.91208        -3.12326
   O      -10.72085       -10.71212        -3.82587
   C      -11.76468       -11.64794        -3.64052
   C      -11.28539       -13.07526        -3.83113
   S      -10.17400       -13.54301        -2.46241
   C       -7.32045       -12.79864        -0.85118
   C       -7.75071       -14.01412        -0.46421
   C       -7.07020       -14.85293         0.49703
   C       -6.56257       -14.41846         1.68830
   S       -5.92984       -15.69304         2.64910
   C       -6.30959       -16.84091         1.44849
   C       -6.91070       -16.27418         0.35584
   C       -7.12704       -17.03431        -0.87527
   O       -7.02510       -18.22377        -1.01008
   O       -7.38377       -16.18351        -1.91697
   C       -7.17188       -16.58694        -3.18244
   C       -7.15211       -15.66684        -4.16259
   C       -6.75837       -15.97180        -5.49165
   C       -6.26839       -15.12661        -6.43635
   C       -6.16705       -15.62430        -7.83909
   O       -6.34379       -16.76220        -8.20818
   C       -5.84832       -14.44296        -8.65492
   C       -5.68483       -14.36644       -10.00809
   C       -5.31700       -13.13232       -10.58620
   C       -5.09206       -12.00721        -9.73994
   C       -4.68490       -10.78514       -10.31340
   C       -4.52753       -10.68396       -11.66733
   C       -4.76299       -11.79391       -12.50510
   C       -5.14429       -12.99564       -11.97687
   F       -4.60534       -11.66346       -13.82855
   F       -4.14904        -9.52601       -12.21944
   C       -5.27061       -12.11706        -8.34154
   C       -5.67016       -13.31415        -7.80279
   C       -5.87935       -13.72850        -6.41583
   C       -5.61939       -12.94112        -5.32185
   C       -5.45429       -13.36862        -3.98770
   N       -5.22878       -13.60293        -2.88579
   C       -5.42700       -11.54335        -5.36784
   N       -5.36118       -10.39984        -5.28185
   H       -4.38106         0.28155        -0.77550
   H       -6.83046        -3.38545         1.48834
   H       -4.41008        -0.96211        -2.87372
   H       -6.87156        -4.68247        -0.64396
   H       -4.85144        -5.05703        -6.54594
   H       -6.65174        -9.55936        -7.50176
   H       -8.84202        -8.71273        -6.27810
   H       -8.22170        -4.02743        -5.87222
   H      -10.68039        -3.50899        -5.02864
   H      -10.80672        -8.36996        -3.73053
   H       -7.76253        -8.03228        -3.56620
   H      -12.51397       -11.38461        -4.39080
   H      -12.20093       -11.52725        -2.64065
   H      -10.74501       -13.18140        -4.77252
   H      -12.11510       -13.77737        -3.79858
   H       -6.38497       -12.41780        -0.46581
   H       -8.65274       -14.43326        -0.88343
   H       -6.56704       -13.41674         2.06924
   H       -6.05613       -17.87519         1.57332
   H       -6.92798       -17.63409        -3.32687
   H       -7.39057       -14.64764        -3.89921
   H       -6.85806       -17.00376        -5.81384
   H       -5.82193       -15.24126       -10.62531
   H       -4.48247        -9.93583        -9.67876
   H       -5.31168       -13.83789       -12.62977
   H       -5.06354       -11.24744        -7.73803
*
