# ORCA input file
# SCF done       -231.216556882550          0.000543802237
! CAM-B3LYP def2-SVP def2/J RIJCOSX Grid4 TightSCF
%maxcore 5000
%tddft
    Mode sTDDFT
    Ethresh 5.0
    maxcore 5000
end

%pal
  nprocs 6
  end
* xyz 0 1
   C      -11.67787        -5.20351        -6.37086
   C      -12.55321        -6.12336        -6.87731
   F      -13.32671        -5.81099        -7.92307
   C      -12.65313        -7.40911        -6.30701
   F      -13.51844        -8.28899        -6.82426
   C      -11.87643        -7.75643        -5.23701
   C      -10.96565        -6.83048        -4.69217
   C      -10.86262        -5.53050        -5.26873
   C       -9.95305        -4.58490        -4.74133
   C       -9.16988        -4.92814        -3.67054
   C       -9.28233        -6.23015        -3.09998
   C      -10.15197        -7.16350        -3.58655
   C       -8.34045        -6.33782        -1.97821
   O       -8.18907        -7.26332        -1.20522
   C       -7.61314        -5.06452        -1.92557
   C       -8.15345        -4.17639        -2.93621
   C       -7.79369        -2.87481        -3.16929
   C       -6.81506        -2.17138        -2.43674
   N       -6.03036        -1.55188        -1.87132
   C       -8.36831        -2.06092        -4.16915
   N       -8.79793        -1.35084        -4.96130
   C       -6.59269        -4.83069        -1.05086
   C       -5.96768        -5.72665        -0.16670
   C       -4.91986        -5.36707         0.64453
   C       -4.58244        -3.93487         0.91929
   C       -5.64927        -3.31064         1.82808
   C       -4.16000        -6.43667         1.25611
   C       -2.93298        -6.21605         2.10028
   C       -3.27041        -5.72443         3.50893
   C       -4.59471        -7.66235         0.93152
   S       -6.17787        -7.55130        -0.06040
   O       -7.09993        -8.05132         0.90938
   O       -5.89519        -8.23694        -1.29097
   C       -4.32946        -9.01220         1.24878
   C       -4.84931        -9.68488         2.33304
   N       -5.47603        -9.10867         3.44948
   O       -5.94090        -9.86348         4.28243
   O       -5.49576        -7.89126         3.53645
   C       -4.74534       -11.11009         2.11432
   C       -4.19134       -11.32116         0.90116
   C       -3.88450       -10.04957         0.28791
   C       -3.35409        -9.77493        -0.94366
   C       -3.13708        -8.45026        -1.48212
   C       -2.98766        -8.53584        -2.82018
   C       -3.03655        -9.92920        -3.19666
   N       -2.89631       -10.35416        -4.53059
   O       -2.85380       -11.55108        -4.76509
   O       -2.83381        -9.48812        -5.38606
   C       -3.16599       -10.71892        -2.06864
   C       -3.12647       -12.14177        -2.06122
   C       -2.47302       -12.90237        -1.15249
   C       -2.40656       -14.33422        -1.17323
   C       -1.48013       -14.99975        -0.37003
   N       -1.26489       -16.30068        -0.37498
   C       -1.97241       -17.10407        -1.15867
   C       -3.02403       -16.57506        -1.97570
   C       -3.23331       -15.16705        -1.98664
   N       -4.21926       -14.63832        -2.73449
   C       -4.93235       -15.43922        -3.47641
   C       -4.72720       -16.83192        -3.46187
   N       -3.80975       -17.37948        -2.71235
   C       -1.55641       -18.47727        -1.14090
   C       -2.11435       -19.49711        -1.82975
   C       -1.63637       -20.83819        -1.81141
   C       -0.36521       -21.30146        -1.69447
   C       -0.15405       -22.74268        -1.36589
   O       -0.98823       -23.61595        -1.39540
   C        1.25833       -22.84514        -0.95388
   C        1.92687       -23.92335        -0.44887
   C        3.28776       -23.78426        -0.09776
   C        3.92687       -22.52127        -0.26625
   C        5.28326       -22.38659         0.09298
   C        5.97320       -23.45592         0.59082
   C        5.34053       -24.70523         0.75481
   C        4.02589       -24.86727         0.41862
   F        6.04168       -25.73512         1.24563
   F        7.26199       -23.32702         0.92930
   C        3.20958       -21.42386        -0.79419
   C        1.89545       -21.58583        -1.14544
   C        0.93572       -20.65991        -1.74517
   C        1.27273       -19.52197        -2.42698
   C        0.38083       -18.74668        -3.19653
   N       -0.27336       -18.09201        -3.87484
   C        2.59017       -19.02202        -2.51006
   N        3.64026       -18.56829        -2.59909
   H      -11.61431        -4.22472        -6.82013
   H      -11.96406        -8.74388        -4.81176
   H       -9.89798        -3.61207        -5.20263
   H      -10.21269        -8.14139        -3.13431
   H       -6.15050        -3.84198        -1.07079
   H       -4.53225        -3.36328        -0.01029
   H       -3.61197        -3.86248         1.40399
   H       -6.61416        -3.28690         1.32919
   H       -5.36359        -2.29320         2.08117
   H       -5.75399        -3.88723         2.74345
   H       -2.26231        -5.51088         1.60269
   H       -2.41168        -7.17181         2.17910
   H       -3.62156        -4.69756         3.50433
   H       -2.38460        -5.78107         4.13635
   H       -4.04664        -6.35154         3.93780
   H       -5.08675       -11.83873         2.82471
   H       -4.00839       -12.27420         0.44989
   H       -3.13597        -7.55384        -0.89691
   H       -2.84034        -7.74059        -3.52558
   H       -3.56672       -12.63613        -2.91944
   H       -1.87583       -12.42429        -0.38380
   H       -0.84740       -14.43674         0.30521
   H       -5.70571       -14.98347        -4.07890
   H       -5.33978       -17.50211        -4.04901
   H       -0.71378       -18.65827        -0.48423
   H       -3.02040       -19.30876        -2.38976
   H       -2.39271       -21.61630        -1.87417
   H        1.42382       -24.86958        -0.32029
   H        5.78379       -21.43893        -0.03018
   H        3.55613       -25.82940         0.55003
   H        3.71673       -20.47851        -0.90113
*
