# ORCA input file
# SCF done       -232.533353009276          0.000553408675
! CAM-B3LYP def2-SVP def2/J RIJCOSX Grid4 TightSCF
%maxcore 5000
%tddft
    Mode sTDDFT
    Ethresh 5.0
    maxcore 5000
end

%pal
  nprocs 6
  end
* xyz 0 1
   C      -15.27528         1.03673        -5.53763
   C      -16.38340         0.92111        -6.32869
   F      -17.01418         2.01600        -6.76789
   C      -16.87652        -0.34966        -6.69162
   F      -17.96435        -0.43156        -7.46639
   C      -16.25401        -1.48669        -6.25824
   C      -15.10913        -1.40143        -5.44177
   C      -14.61041        -0.11679        -5.07379
   C      -13.46392        -0.00609        -4.25711
   C      -12.83527        -1.14476        -3.82357
   C      -13.33631        -2.42557        -4.19922
   C      -14.44527        -2.56112        -4.98464
   C      -12.47955        -3.47507        -3.62365
   O      -12.67639        -4.66443        -3.56515
   C      -11.31102        -2.73545        -3.04522
   C      -11.64795        -1.31965        -2.99981
   C      -10.99589        -0.35638        -2.28432
   C       -9.91030        -0.63303        -1.42498
   N       -9.04830        -0.83514        -0.69506
   C      -11.36617         1.00625        -2.26894
   N      -11.62394         2.12288        -2.22652
   C      -10.12671        -3.32165        -2.79320
   C       -9.81543        -4.69763        -3.10173
   C       -9.87401        -5.30569        -4.33307
   N      -10.33164        -4.77590        -5.55991
   O      -10.18759        -5.46860        -6.54700
   O      -10.83217        -3.66153        -5.57572
   C       -9.25210        -6.61442        -4.25924
   C       -8.84714        -6.82579        -2.99260
   C       -9.21970        -5.68188        -2.17993
   C       -9.11962        -5.53320        -0.82206
   C       -9.34411        -4.31713        -0.08205
   C       -8.74748        -4.42133         1.12802
   C       -8.18935        -5.74617         1.25863
   N       -7.54125        -6.17238         2.43743
   O       -7.46911        -5.37130         3.34896
   O       -7.08381        -7.30271         2.47722
   C       -8.48561        -6.48867         0.12903
   C       -8.28279        -7.88477        -0.01315
   C       -9.10187        -8.73242        -0.68713
   C       -8.89397       -10.14987        -0.79981
   C       -9.91855       -10.96071        -1.31513
   C       -9.76048       -12.32193        -1.44100
   C       -8.54751       -12.92299        -1.08911
   C       -7.50782       -12.11508        -0.59435
   C       -7.68451       -10.76439        -0.43481
   C       -8.28545       -14.34316        -1.17402
   C       -8.94185       -15.39785        -0.59694
   N      -10.17039       -15.40062         0.10458
   O      -10.89338       -14.42600         0.01616
   O      -10.42466       -16.39246         0.75976
   C       -8.08476       -16.57181        -0.63242
   C       -6.91538       -16.24552        -1.22326
   C       -6.99590       -14.88360        -1.68391
   C       -6.20456       -14.18833        -2.56344
   C       -6.63296       -12.98941        -3.26395
   C       -5.57778       -12.43203        -3.89300
   C       -4.41401       -13.23145        -3.60111
   N       -3.12428       -12.89421        -4.05644
   O       -2.20476       -13.66392        -3.82031
   O       -2.99997       -11.83945        -4.64849
   C       -4.77118       -14.35010        -2.86683
   C       -3.82456       -15.29072        -2.35881
   C       -3.91841       -16.64113        -2.34836
   C       -2.90515       -17.50333        -1.84780
   C       -1.86742       -17.25682        -1.00295
   C       -0.76782       -18.27691        -0.96041
   O       -0.82939       -19.40546        -1.38265
   C        0.38134       -17.58582        -0.35312
   C        1.67128       -18.01502        -0.22225
   C        2.62594       -17.15044         0.35766
   C        2.22521       -15.84891         0.78018
   C        3.18536       -14.98435         1.34343
   C        4.48151       -15.39411         1.48511
   C        4.87623       -16.68303         1.07002
   C        3.96898       -17.54367         0.51800
   F        6.15183       -17.05667         1.22098
   F        5.39179       -14.57401         2.02087
   C        0.88139       -15.43553         0.63753
   C       -0.03185       -16.29746         0.09028
   C       -1.46447       -16.14771        -0.16037
   C       -2.26160       -15.24001         0.48690
   C       -3.66079       -15.14382         0.37566
   N       -4.79703       -14.98142         0.32893
   C       -1.77197       -14.28600         1.40781
   N       -1.43887       -13.48631         2.15949
   H      -14.91138         2.01610        -5.26871
   H      -16.64348        -2.45050        -6.54627
   H      -13.10169         0.97710        -4.00183
   H      -14.80580        -3.54003        -5.26099
   H       -9.29315        -2.73900        -2.41780
   H       -9.13853        -7.25665        -5.11115
   H       -8.31696        -7.68344        -2.63248
   H       -9.85449        -3.45309        -0.45373
   H       -8.68431        -3.67365         1.89573
   H       -7.47894        -8.28862         0.58777
   H      -10.00865        -8.34743        -1.13766
   H      -10.85250       -10.50482        -1.60839
   H      -10.56352       -12.92393        -1.83317
   H       -6.58014       -12.57760        -0.29288
   H       -6.87680       -10.17520        -0.03119
   H       -8.37548       -17.51893        -0.21885
   H       -6.08916       -16.90423        -1.37878
   H       -7.65057       -12.65966        -3.32302
   H       -5.55678       -11.56050        -4.51821
   H       -2.86909       -14.85550        -2.08592
   H       -4.74249       -17.12334        -2.85689
   H       -2.91542       -18.51806        -2.23662
   H        1.95995       -18.99831        -0.56078
   H        2.89956       -13.99647         1.66936
   H        4.28761       -18.52544         0.20461
   H        0.61272       -14.43978         0.95130
*
