# ORCA input file
# SCF done       -167.976772232429          0.000445922352
! CAM-B3LYP def2-SVP def2/J RIJCOSX Grid4 TightSCF
%maxcore 5000
%tddft
    Mode sTDDFT
    Ethresh 5.0
    maxcore 5000
end

%pal
  nprocs 6
  end
* xyz 0 1
   C        1.66697        -0.72249        -0.28961
   N        2.23083         0.51291        -0.20950
   C        3.64164         0.79167        -0.11516
   C        4.18671         0.47148         1.27408
   C        1.24878         1.52552        -0.16401
   O        1.51629         2.71197        -0.09009
   C        0.00185         0.80792        -0.23442
   C        0.30774        -0.58993        -0.30971
   C       -0.94245        -1.31666        -0.38938
   O       -1.20040        -2.49729        -0.45911
   N       -1.92587        -0.30703        -0.35744
   C       -3.32627        -0.63482        -0.46243
   C       -3.85348        -0.43498        -1.88167
   C       -1.37784         0.95504        -0.27278
   C       -2.15305         2.14396        -0.23162
   C       -1.58663         3.37227        -0.12452
   C       -2.30589         4.59515        -0.09230
   S       -1.43880         6.09034         0.13600
   C       -2.89310         7.03311         0.04654
   C       -3.99776         6.19688        -0.15348
   C       -3.65752         4.83677        -0.22636
   C       -5.33278         6.61734        -0.26490
   N       -6.44102         6.90169        -0.36205
   C       -2.80848         8.44127         0.17709
   C       -3.84319         9.30901         0.03846
   C       -3.73952        10.71460         0.18009
   S       -5.16361        11.69391        -0.15745
   C       -2.65779        11.49503         0.56120
   C       -2.96834        12.85056         0.58214
   C       -2.30121        14.10652         0.89030
   S       -0.75594        14.32013         1.37477
   C       -4.29889        13.11733         0.20637
   C       -4.50373        14.51878         0.25567
   S       -5.74547        15.65193        -0.04538
   C       -3.30936        15.13183         0.67173
   C       -3.40936        16.51945         0.75288
   C       -4.66547        16.97085         0.39401
   C       -5.12728        18.31096         0.34440
   S       -4.12087        19.62646         0.88796
   C       -5.34839        20.80303         0.49560
   C       -6.47226        20.16560        -0.03206
   C       -6.34356        18.76961        -0.10812
   C       -7.63544        20.84009        -0.44561
   N       -8.60648        21.34090        -0.79260
   C       -5.17598        22.18789         0.70486
   C       -4.07889        22.72435         1.30414
   C       -3.91004        24.11319         1.51031
   N       -2.82406        24.66599         2.15542
   C       -1.67973        23.95860         2.67498
   C       -0.69796        23.57202         1.57117
   C       -2.90785        26.06655         2.22831
   O       -2.05919        26.75913         2.75509
   C       -4.15751        26.38459         1.57431
   C       -4.74654        25.16312         1.14634
   C       -5.99328        25.47655         0.49242
   O       -6.84143        24.77940        -0.02949
   N       -6.08347        26.87980         0.57284
   C       -7.18640        27.58452        -0.03352
   C       -6.80384        28.17957        -1.38673
   C       -4.99706        27.42858         1.20975
   C       -4.84270        28.83657         1.43723
   C       -3.77438        29.36039         2.04243
   H        2.27542        -1.60658        -0.33597
   H        3.76017         1.85787        -0.32648
   H        4.17412         0.21303        -0.87612
   H        3.66899         1.06432         2.02413
   H        5.24712         0.70333         1.31736
   H        4.04921        -0.58208         1.50747
   H       -3.89843        -0.03977         0.25520
   H       -3.40950        -1.69050        -0.18853
   H       -3.73711         0.59853        -2.20109
   H       -4.90640        -0.69966        -1.92505
   H       -3.30590        -1.07253        -2.57121
   H       -3.22706         2.04545        -0.28424
   H       -0.50922         3.45005        -0.05931
   H       -4.39179         4.06604        -0.37927
   H       -1.81964         8.82232         0.39140
   H       -4.82542         8.93126        -0.20683
   H       -1.69494        11.09397         0.81779
   H       -2.61314        17.17755         1.05110
   H       -7.11356        18.12070        -0.48739
   H       -5.97936        22.83022         0.36450
   H       -3.29700        22.06128         1.65085
   H       -2.01426        23.07499         3.22620
   H       -1.19259        24.64557         3.37290
   H       -1.17181        22.92715         0.83433
   H        0.15147        23.04821         2.00069
   H       -0.33771        24.46559         1.06759
   H       -7.54690        28.36106         0.64689
   H       -7.97742        26.84174        -0.17154
   H       -5.98594        28.88969        -1.28452
   H       -7.65978        28.68955        -1.82001
   H       -6.49213        27.38783        -2.06350
   H       -5.64524        29.47649         1.09717
   H       -2.96374        28.74230         2.39040
   H       -3.69032        30.42127         2.20383
*
