# ORCA input file
# SCF done       -238.963390689406          0.000931044414
! CAM-B3LYP def2-SVP def2/J RIJCOSX Grid4 TightSCF
%maxcore 5000
%tddft
    Mode sTDDFT
    Ethresh 5.0
    maxcore 5000
end

%pal
  nprocs 6
  end
* xyz 0 1
   C       -1.63313        -2.18760         7.92951
   N       -2.68446        -2.59452         7.18839
   C       -2.92904        -3.93668         6.72118
   C       -2.04946        -4.27979         5.52187
   C       -3.52972        -1.49915         6.84124
   O       -4.52362        -1.61620         6.16313
   C       -2.89287        -0.36759         7.47598
   C       -1.72057        -0.82851         8.12936
   C       -1.09221         0.31714         8.76039
   O       -0.09538         0.43009         9.43150
   N       -1.92903         1.40930         8.41672
   C       -1.68772         2.69886         9.02388
   C       -2.76064         3.05508        10.04816
   C       -3.00814         1.01101         7.66679
   C       -4.08103         1.77436         7.14464
   C       -4.14260         3.11737         6.94346
   C       -5.27784         3.79546         6.42638
   C       -6.63047         3.57199         6.66767
   N       -7.22521         2.68548         7.58907
   O       -6.51286         2.12867         8.40919
   O       -8.43446         2.56257         7.53891
   C       -7.40371         4.55105         5.96204
   C       -6.55278         5.40559         5.32689
   C       -5.20715         4.99022         5.57440
   C       -4.04901         5.51557         5.02111
   C       -2.85846         4.80486         4.73061
   C       -2.03574         5.61583         3.99511
   C       -2.64136         6.89398         3.83153
   N       -1.96460         7.89204         3.10803
   O       -0.78193         7.70168         2.88503
   O       -2.57716         8.87292         2.71470
   C       -3.88367         6.89536         4.49443
   C       -4.77126         7.90041         4.89861
   C       -4.80285         9.21570         4.48624
   C       -5.72444        10.20548         4.84302
   S       -5.47933        11.75841         4.08767
   C       -6.93294        12.37699         4.77813
   C       -7.52789        11.43985         5.65460
   C       -6.85073        10.23399         5.70286
   C       -7.25003         9.10478         6.60348
   C       -8.55129         9.37993         7.36816
   C       -9.73784         8.94116         6.51142
   F       -9.65097         9.32324         5.22672
   F       -9.83048         7.60065         6.48388
   F      -10.90829         9.40192         6.96651
   C       -8.64905        10.84643         7.78672
   C       -8.67756        11.75605         6.56180
   C       -7.42380        13.66909         4.47253
   C       -6.73052        14.87282         4.34349
   N       -5.34686        15.07202         4.33122
   O       -4.92838        16.19561         4.52741
   O       -4.62802        14.10170         4.10927
   C       -7.66652        15.95590         4.30499
   C       -8.92962        15.44883         4.36247
   C       -8.85071        14.02288         4.40162
   C       -9.87039        13.13784         4.09304
   C       -9.72816        11.89387         3.41670
   C      -10.96960        11.44648         3.06826
   C      -11.95794        12.36029         3.55030
   N      -13.32410        12.06556         3.40721
   O      -14.15200        12.85874         3.83175
   O      -13.61380        11.01884         2.85841
   C      -11.31863        13.41693         4.21801
   C      -11.73806        14.44692         5.07469
   C      -12.95884        15.07640         5.15816
   C      -13.25686        16.16820         5.99109
   C      -12.42997        17.02337         6.74135
   N      -11.09988        16.90626         7.18823
   O      -10.52267        17.93976         7.47482
   O      -10.59072        15.79834         7.30323
   C      -13.14198        18.23434         7.02314
   C      -14.40200        18.14657         6.52641
   C      -14.58667        16.83880         5.96367
   C      -15.78862        16.26644         5.62339
   C      -16.04542        14.87866         5.29796
   C      -17.30933        14.75585         4.84373
   C      -17.93380        16.06718         4.88139
   N      -19.27056        16.30312         4.49661
   O      -19.91525        15.35216         4.09873
   O      -19.69872        17.44110         4.58536
   C      -17.07033        16.98511         5.41614
   C      -17.41593        18.37511         5.65967
   C      -17.47458        18.92953         6.86446
   H       -0.89095        -2.88302         8.27689
   H       -3.98290        -3.97940         6.43442
   H       -2.74893        -4.63802         7.54023
   H       -2.24797        -3.59288         4.70303
   H       -2.26422        -5.29024         5.18686
   H       -0.99595        -4.21535         5.78500
   H       -1.59839         3.46942         8.25388
   H       -0.71737         2.60635         9.52159
   H       -3.75046         3.06953         9.59863
   H       -2.55070         4.03336        10.47127
   H       -2.76201         2.32349        10.85207
   H       -4.90803         1.15831         6.81778
   H       -3.27392         3.73579         7.11536
   H       -8.47680         4.58057         5.96849
   H       -6.84040         6.18196         4.64453
   H       -2.69480         3.76333         4.92765
   H       -1.08210         5.35912         3.57261
   H       -5.49673         7.57200         5.62427
   H       -4.06307         9.53465         3.76248
   H       -6.44518         8.92758         7.32223
   H       -7.38167         8.19146         6.01810
   H       -8.59087         8.74120         8.25680
   H       -7.78070        11.07973         8.40468
   H       -9.54639        11.00914         8.38399
   H       -8.63028        12.80066         6.87404
   H       -9.62481        11.62010         6.03850
   H       -7.37568        16.98591         4.22366
   H       -9.83570        16.01147         4.25301
   H       -8.79526        11.44190         3.14429
   H      -11.20893        10.55384         2.52218
   H      -10.96204        14.77058         5.75466
   H      -13.73646        14.77674         4.47423
   H      -12.70445        19.06059         7.55162
   H      -15.16219        18.89617         6.60030
   H      -15.35607        14.07040         5.42432
   H      -17.81393        13.86753         4.51687
   H      -17.74589        18.93077         4.79047
   H      -17.23789        18.37531         7.75860
   H      -17.80143        19.94570         6.99733
*
