# ORCA input file
# SCF done       -190.195836916951          0.000683566113
! CAM-B3LYP def2-SVP def2/J RIJCOSX Grid4 TightSCF
%maxcore 5000
%tddft
    Mode sTDDFT
    Ethresh 5.0
    maxcore 5000
end

%pal
  nprocs 6
  end
* xyz 0 1
   C        2.62385        -0.20536         0.55296
   N        2.20624         0.41742        -0.57538
   C        2.38477        -0.05901        -1.92462
   C        3.81389         0.16520        -2.41148
   C        1.62122         1.67354        -0.28413
   O        1.17472         2.41291        -1.13783
   C        1.70521         1.77307         1.15407
   C        2.33325         0.58543         1.63429
   C        2.41568         0.67373         3.08005
   O        2.85401        -0.07688         3.92004
   N        1.82354         1.91827         3.37753
   C        1.75708         2.39988         4.73635
   C        2.86659         3.40420         5.03910
   C        1.40237         2.58269         2.24778
   C        0.77740         3.85175         2.27139
   C        0.35481         4.48527         1.14105
   C       -0.26136         5.75750         1.11513
   C       -0.71057         6.40482        -0.02009
   C       -1.23883         7.67388         0.33847
   C       -1.10332         7.77274         1.80748
   C       -0.52724         6.62929         2.25542
   C       -1.53179         8.82606         2.62518
   N       -1.88982         9.65686         3.33305
   C       -1.75487         8.64413        -0.49014
   C       -2.18156         9.95048        -0.11392
   C       -2.61658        10.62579        -1.23352
   C       -2.49799         9.72520        -2.37133
   C       -1.96649         8.54927        -1.94449
   C       -1.69348         7.44833        -2.76376
   N       -1.48314         6.56328        -3.46503
   C       -3.09381        11.97030        -1.30191
   C       -2.77765        12.92795        -0.30434
   C       -3.31374        14.26578        -0.33562
   N       -2.97664        15.15243         0.62287
   C       -2.17875        14.77709         1.58349
   C       -1.60003        13.46044         1.58774
   N       -1.90166        12.59532         0.65527
   C       -0.63850        13.10989         2.56933
   N        0.14780        12.86747         3.36568
   C       -1.83624        15.70541         2.60074
   N       -1.53859        16.43111         3.43469
   C       -4.16274        14.69490        -1.36484
   C       -4.44341        13.77457        -2.37840
   C       -3.90790        12.43031        -2.35722
   N       -4.33709        11.72475        -3.40854
   S       -5.29360        12.64104        -4.30679
   N       -5.24399        13.97495        -3.43172
   C       -4.73447        16.04147        -1.37372
   C       -4.60244        16.87201        -2.48585
   F       -3.89640        16.44943        -3.54390
   C       -5.14151        18.14846        -2.49971
   F       -4.95055        18.90954        -3.58785
   C       -5.84089        18.66517        -1.40664
   C       -5.96976        17.82658        -0.29695
   C       -5.43291        16.54873        -0.27874
   F       -5.64470        15.76699         0.78857
   F       -6.66412        18.24219         0.77228
   C       -6.41720        20.01660        -1.42665
   C       -7.13175        20.45946        -2.53345
   C       -7.68405        21.72974        -2.56360
   C       -8.52214        22.12916        -3.74673
   C      -10.00478        21.90714        -3.44520
   C       -7.51521        22.57536        -1.46394
   C       -6.79665        22.13795        -0.34137
   C       -6.25798        20.86413        -0.33325
   C       -6.63477        23.08460         0.81962
   C       -5.68743        22.62285         1.91949
   C       -8.09801        23.92935        -1.44528
   C       -7.69270        24.93402        -2.20748
   C       -8.27212        26.30753        -2.17472
   H        3.09258        -1.17141         0.51467
   H        1.68632         0.50471        -2.54867
   H        2.12882        -1.12145        -1.96523
   H        4.05420         1.22526        -2.38890
   H        3.91560        -0.19246        -3.43199
   H        4.52332        -0.36721        -1.78161
   H        1.87805         1.51955         5.37382
   H        0.77161         2.83542         4.92376
   H        3.83741         2.93596         4.89766
   H        2.78954         3.73808         6.07006
   H        2.80265         4.27044         4.38405
   H        0.63572         4.31848         3.23501
   H        0.49239         4.00344         0.18184
   H       -0.65395         6.02013        -1.01972
   H       -0.30421         6.40365         3.28148
   H       -2.17023        10.33007         0.88667
   H       -2.77771         9.97784        -3.37574
   H       -7.28043        19.80017        -3.37535
   H       -8.23529        21.52936        -4.61147
   H       -8.36290        23.17827        -3.99052
   H      -10.18972        20.86553        -3.19144
   H      -10.61123        22.16782        -4.30947
   H      -10.31395        22.52579        -2.60597
   H       -5.69002        20.52180         0.51523
   H       -7.62368        23.25965         1.25612
   H       -6.28899        24.04596         0.42800
   H       -6.05138        21.71611         2.39642
   H       -5.61091        23.39588         2.68103
   H       -4.69184        22.43919         1.52198
   H       -8.88890        24.08844        -0.72031
   H       -6.87750        24.78582        -2.90503
   H       -9.08232        26.37373        -1.45254
   H       -8.65454        26.57815        -3.15890
   H       -7.50447        27.03484        -1.91104
*
