# ORCA input file
# SCF done       -195.247922784229          0.000596943870
! CAM-B3LYP def2-SVP def2/J RIJCOSX Grid4 TightSCF
%maxcore 5000
%tddft
    Mode sTDDFT
    Ethresh 5.0
    maxcore 5000
end

%pal
  nprocs 6
  end
* xyz 0 1
   C        0.58642         0.12712         1.22500
   O       -0.62637         0.61695         0.85187
   C       -1.30151        -0.43841         0.36053
   C       -2.55134        -0.80294        -0.20071
   C       -3.74505         0.05415        -0.33996
   O       -4.87245        -0.35859        -0.52333
   N       -3.46454         1.37303        -0.21824
   C       -2.41622        -2.16740        -0.45327
   O       -1.19686        -2.64091        -0.06555
   C       -0.52155        -1.58591         0.42340
   C        0.71638        -1.21202         0.99032
   C       -3.34396        -3.11774        -0.99939
   C       -3.49172        -4.40127        -0.56885
   C       -4.62146        -4.98673        -1.26097
   C       -5.05195        -6.30863        -1.09725
   N       -5.40332        -7.39284        -0.95660
   C       -5.17836        -4.04331        -2.08419
   C       -4.38027        -2.85297        -2.00668
   C       -4.44958        -1.77062        -2.84929
   C       -5.60669        -1.36109        -3.67649
   C       -5.19085        -0.33733        -4.48075
   C       -3.80131        -0.06706        -4.20102
   C       -3.36748        -0.90509        -3.20344
   C       -3.03804         0.91361        -4.84576
   N       -2.42062         1.72698        -5.37158
   C       -6.93089        -1.86133        -3.51099
   C       -7.90397        -1.76265        -4.44617
   C       -9.23590        -2.28867        -4.33821
   C      -10.00646        -2.39010        -5.48422
   C      -11.27601        -2.98432        -5.43948
   C      -12.19690        -3.26080        -6.44932
   C      -12.03634        -2.93273        -7.89200
   C      -11.84728        -4.20272        -8.74340
   N      -10.62749        -4.88435        -8.34750
   C      -13.20236        -2.08704        -8.43501
   N      -12.88070        -1.61420        -9.77066
   C      -13.29220        -3.96741        -5.83037
   C      -14.39027        -4.55997        -6.34090
   C      -15.33144        -5.33870        -5.48873
   C      -15.05088        -5.26162        -4.02254
   C      -13.95072        -4.66791        -3.52201
   C      -13.01775        -4.05230        -4.38787
   C      -11.78709        -3.46152        -4.16562
   C      -11.00990        -3.29545        -2.99827
   C       -9.77568        -2.73506        -3.08850
   C      -16.76181        -4.96014        -5.78294
   C      -17.63269        -5.79302        -6.35428
   C      -19.01107        -5.51581        -6.67326
   C      -19.66832        -6.06481        -7.73250
   C      -20.98028        -5.46056        -7.83343
   C      -21.94199        -5.80995        -8.78793
   N      -22.72012        -6.09851        -9.58194
   C      -21.10896        -4.51580        -6.85038
   C      -19.91496        -4.53402        -6.05076
   C      -19.76978        -3.91705        -4.82794
   C      -20.56307        -2.78925        -4.29079
   C      -20.30957        -2.71612        -2.94874
   C      -19.34668        -3.73106        -2.60372
   C      -18.99055        -4.41853        -3.73910
   C      -18.85600        -3.96676        -1.31388
   N      -18.44463        -4.15671        -0.25854
   C      -21.33799        -1.84107        -5.02074
   C      -21.20637        -1.54953        -6.33538
   C      -22.01676        -0.60587        -7.02682
   O      -23.04730         0.02417        -6.36896
   C      -23.62735         0.82124        -7.28053
   C      -24.68250         1.75321        -7.44459
   C      -25.67974         2.23695        -6.46717
   O      -26.52390         3.06408        -6.73211
   N      -25.55620         1.66660        -5.24531
   C      -24.58263         2.12790        -8.76650
   O      -23.57423         1.51672        -9.41927
   C      -22.98516         0.71363        -8.51289
   C      -21.94127        -0.21057        -8.35414
   H        1.27526         0.83233         1.64459
   H       -2.54116         1.70643        -0.00508
   H       -4.22515         2.03062        -0.24948
   H        1.56930        -1.82307         1.19579
   H       -2.90801        -4.90227         0.18012
   H       -5.98669        -4.21067        -2.76979
   H       -5.78305         0.22993        -5.17384
   H       -2.36388        -0.97287        -2.83151
   H       -7.13125        -2.34782        -2.56861
   H       -7.65521        -1.31820        -5.40173
   H       -9.60519        -2.04222        -6.42532
   H      -11.12531        -2.33435        -8.00362
   H      -11.86583        -3.89353        -9.80010
   H      -12.67724        -4.89088        -8.57119
   H       -9.81646        -4.31527        -8.56606
   H      -10.53274        -5.76133        -8.84631
   H      -13.40488        -1.27286        -7.71821
   H      -14.10501        -2.69608        -8.51252
   H      -12.09742        -0.96960        -9.73827
   H      -13.66919        -1.12141       -10.17401
   H      -14.62696        -4.53296        -7.39476
   H      -15.21147        -6.39357        -5.79021
   H      -15.77111        -5.73590        -3.37335
   H      -13.76687        -4.65836        -2.45786
   H      -11.39961        -3.62421        -2.04635
   H       -9.18372        -2.60461        -2.19644
   H      -17.04393        -3.95915        -5.49063
   H      -17.28934        -6.76760        -6.68485
   H      -19.29273        -6.80651        -8.41303
   H      -21.99580        -3.95596        -6.62706
   H      -20.71374        -2.00337        -2.25437
   H      -18.35167        -5.27847        -3.77916
   H      -22.04316        -1.26506        -4.43479
   H      -20.45136        -2.03100        -6.93893
   H      -24.85560         0.97388        -5.05058
   H      -26.20134         1.93160        -4.52057
   H      -25.18729         2.81899        -9.31923
   H      -21.23416        -0.55633        -9.07815
*
