# ORCA input file
# SCF done       -203.602826344432          0.000461733834
! CAM-B3LYP def2-SVP def2/J RIJCOSX Grid4 TightSCF
%maxcore 5000
%tddft
    Mode sTDDFT
    Ethresh 5.0
    maxcore 5000
end

%pal
  nprocs 6
  end
* xyz 0 1
   C        0.69370         2.21670        -0.78389
   C       -0.50991         3.09320        -0.95378
   O       -1.51195         3.05090        -0.27770
   C       -0.15486         4.00326        -2.05049
   C        1.06930         3.61638        -2.60686
   C        1.53773         2.40162        -1.95322
   C        2.42084         1.49450        -2.46226
   C        2.62289         0.21067        -1.90906
   N        2.76163        -0.86864        -1.54486
   C        3.14441         1.68298        -3.65986
   N        3.75271         1.78955        -4.62638
   C        1.64239         4.35179        -3.65200
   C        0.97322         5.44928        -4.12800
   C       -0.27480         5.85495        -3.60443
   C       -0.86409         5.12198        -2.53290
   C       -2.10722         5.53282        -2.01181
   C       -2.74432         6.62505        -2.53498
   C       -2.16955         7.34977        -3.59081
   C       -0.96188         6.97488        -4.11420
   C        0.89838         1.54041         0.36511
   C        2.13104         0.93834         0.77240
   N        3.29674         1.45122         0.43014
   C        4.23059         0.62888         0.96459
   C        3.60662        -0.48480         1.68774
   C        4.63633        -1.38612         2.22722
   O        4.49258        -2.40249         2.87078
   C        5.89156        -0.74537         1.78354
   C        5.59245         0.48612         1.01790
   N        6.73895         1.07959         0.59920
   C        7.70166         0.31197         1.04117
   C        7.24250        -0.84791         1.78898
   C        2.24930        -0.29072         1.59014
   C        1.15413        -1.06384         2.05828
   C        1.31672        -2.28413         2.62669
   C        0.26064        -3.11217         3.08672
   S        0.62579        -4.78629         3.46202
   C       -1.02220        -5.07939         3.86175
   C       -1.79669        -3.91365         3.73372
   C       -1.07572        -2.81087         3.28713
   S       -3.46931        -4.16278         4.15320
   C       -3.13423        -5.84291         4.47357
   C       -3.92027        -6.92025         4.86272
   C       -3.19327        -8.09870         4.93731
   S       -1.49466        -7.84773         4.54134
   C       -1.78380        -6.17589         4.26689
   C       -3.69562        -9.37977         5.24056
   C       -2.97904       -10.53355         5.14446
   C       -3.55453       -11.79615         5.40679
   N       -4.79161       -11.92505         5.88349
   C       -5.01425       -13.24288         5.98127
   C       -3.84147       -14.02475         5.54887
   C       -4.12869       -15.46752         5.63102
   O       -3.39565       -16.40109         5.36978
   C       -5.51604       -15.49575         6.11027
   C       -6.01735       -14.12256         6.32321
   N       -7.29890       -14.14314         6.75443
   C       -7.62046       -15.41605         6.81293
   C       -6.55830       -16.31309         6.41875
   C       -2.89683       -13.10490         5.16696
   C       -1.61075       -13.29913         4.58921
   C       -1.12255       -14.53507         4.32962
   C        0.10720       -14.78347         3.66689
   C        0.46033       -15.97309         3.11690
   C        1.87500       -16.27828         2.76559
   O        2.77079       -15.47059         2.64904
   C        1.93089       -17.74706         2.65868
   C        0.64570       -18.27622         2.79621
   C       -0.31454       -17.18390         2.92138
   C       -1.65654       -17.25889         2.66856
   C       -2.49347       -16.13573         2.48159
   N       -3.20085       -15.26702         2.23265
   C       -2.34882       -18.46430         2.42442
   N       -2.95870       -19.41436         2.21947
   C        0.43788       -19.66131         2.76828
   C        1.51814       -20.48588         2.59187
   C        2.82810       -19.98301         2.43006
   C        3.05363       -18.57625         2.46596
   C        4.36330       -18.07921         2.30870
   C        5.40776       -18.94182         2.11968
   C        5.19120       -20.32848         2.08190
   C        3.93108       -20.83863         2.23422
   H        2.59618         4.06773        -4.06575
   H        1.40233         6.03013        -4.93152
   H       -2.54028         4.96972        -1.20028
   H       -3.69801         6.93761        -2.13708
   H       -2.68950         8.20888        -3.98779
   H       -0.51788         7.53078        -4.92711
   H        0.06654         1.49864         1.05983
   H        8.72984         0.56065         0.84286
   H        7.87379        -1.59417         2.22918
   H        0.16299        -0.65819         1.91195
   H        2.31593        -2.69007         2.71955
   H       -1.50021        -1.83687         3.13184
   H       -4.97365        -6.86816         5.06707
   H       -4.73377        -9.45080         5.53595
   H       -1.94584       -10.49680         4.82744
   H       -8.60394       -15.71152         7.13523
   H       -6.62055       -17.38290         6.39013
   H       -1.05044       -12.42431         4.28729
   H       -1.70168       -15.39478         4.63796
   H        0.84953       -13.99326         3.63259
   H       -0.55035       -20.07222         2.89552
   H        1.37630       -21.55687         2.57266
   H        4.51792       -17.01227         2.33997
   H        6.41050       -18.56021         1.99770
   H        6.03050       -20.99134         1.93140
   H        3.76168       -21.90535         2.20504
*
