# ORCA input file
# SCF done       -196.464661860826          0.000559446001
! CAM-B3LYP def2-SVP def2/J RIJCOSX Grid4 TightSCF
%maxcore 5000
%tddft
    Mode sTDDFT
    Ethresh 5.0
    maxcore 5000
end

%pal
  nprocs 6
  end
* xyz 0 1
   C        4.16332        -2.34244         2.08708
   C        3.94270        -3.25871         3.25170
   O        3.08286        -4.10692         3.32555
   C        5.01091        -2.92086         4.20071
   C        5.71395        -1.80281         3.73927
   C        5.09990        -1.31515         2.51052
   C        5.20171        -0.05452         1.99856
   C        4.36649         0.44028         0.97234
   N        3.65578         0.91869         0.20900
   C        6.06168         0.93955         2.51363
   N        6.73966         1.78038         2.89924
   C        6.80820        -1.30313         4.45664
   C        7.16551        -1.92110         5.62687
   C        6.46332        -3.03776         6.13306
   C        5.35623        -3.56507         5.40612
   C        4.66260        -4.68267         5.91162
   C        5.04697        -5.25225         7.09494
   C        6.13419        -4.73528         7.81673
   C        6.82829        -3.65334         7.34717
   C        3.62906        -2.63243         0.88180
   C        3.99293        -2.05213        -0.37233
   N        5.20229        -1.57260        -0.59504
   C        5.18936        -1.12186        -1.87155
   C        3.88196        -1.33017        -2.49633
   C        3.87841        -0.80119        -3.86557
   O        2.97438        -0.80069        -4.67637
   C        5.24746        -0.26651        -4.01153
   C        6.01600        -0.49180        -2.76863
   N        7.27386         0.00102        -2.88675
   C        7.32919         0.51117        -4.09129
   C        6.09562         0.38115        -4.84808
   C        3.09649        -1.94183        -1.54436
   C        1.73981        -2.34795        -1.57167
   C        0.93868        -2.14886        -2.65109
   C       -0.42345        -2.52088        -2.72667
   N       -1.17537        -2.20885        -3.83822
   C       -2.43989        -2.66573        -3.65133
   C       -3.70212        -2.74812        -4.21409
   C       -4.50412        -3.44100        -3.28412
   N       -3.73754        -3.76969        -2.18122
   C       -2.48051        -3.30284        -2.37411
   C       -1.22427        -3.20850        -1.79742
   C       -5.86502        -3.76402        -3.41896
   C       -6.60582        -4.49518        -2.53172
   C       -7.97226        -4.76132        -2.74186
   N       -8.64488        -4.26150        -3.78222
   C       -9.89869        -4.70812        -3.65990
   C      -10.06360        -5.54759        -2.45982
   C      -11.45025        -6.03789        -2.36087
   O      -11.94426        -6.73452        -1.49517
   C      -12.08202        -5.46532        -3.55361
   C      -11.11242        -4.65443        -4.31524
   N      -11.69037        -4.12488        -5.41463
   C      -12.93492        -4.55400        -5.38845
   C      -13.24463        -5.39570        -4.25957
   C       -8.82784        -5.59754        -1.86420
   C       -8.39985        -6.30927        -0.70908
   C       -9.24081        -7.08227         0.01820
   C       -8.83529        -7.85282         1.13713
   C       -9.57111        -8.83639         1.71567
   C       -9.25664        -9.33536         3.08192
   O       -8.21813        -9.16088         3.68316
   C      -10.48588       -10.01188         3.53189
   C      -11.41481       -10.03742         2.48928
   C      -10.81368        -9.45325         1.29378
   C      -11.22217        -9.65525         0.00408
   C      -10.43023        -9.36026        -1.12860
   N       -9.78962        -9.23099        -2.07188
   C      -12.41787       -10.31442        -0.35196
   N      -13.37818       -10.84199        -0.69279
   C      -12.68408       -10.59890         2.67892
   C      -12.99190       -11.13312         3.90288
   C      -12.06910       -11.14141         4.97216
   C      -10.77837       -10.56404         4.79478
   C       -9.86246       -10.56996         5.86628
   C      -10.21010       -11.12955         7.06485
   C      -11.47943       -11.70204         7.24445
   C      -12.38911       -11.70759         6.22286
   H        7.36604        -0.45699         4.09008
   H        8.00877        -1.55032         6.19132
   H        3.82895        -5.07259         5.34938
   H        4.51358        -6.10698         7.48289
   H        6.41987        -5.20023         8.74849
   H        7.66505        -3.25359         7.90116
   H        2.89281        -3.42882         0.86387
   H        8.23391         0.97467        -4.44450
   H        5.93875         0.73545        -5.84769
   H        1.34251        -2.81654        -0.68313
   H        1.35569        -1.66108        -3.52324
   H       -0.81844        -1.71019        -4.63634
   H       -4.04049        -2.37894        -5.16090
   H       -4.07712        -4.25205        -1.36806
   H       -0.90517        -3.57968        -0.84522
   H       -6.37048        -3.40880        -4.30540
   H       -6.15482        -4.90280        -1.63820
   H      -13.62146        -4.26790        -6.16638
   H      -14.19514        -5.84806        -4.05682
   H       -7.35043        -6.27139        -0.44711
   H      -10.28489        -7.11476        -0.26065
   H       -7.89254        -7.61200         1.61731
   H      -13.40969       -10.60057         1.88194
   H      -13.96799       -11.56637         4.06744
   H       -8.89039       -10.12723         5.71683
   H       -9.50732       -11.13498         7.88471
   H      -11.73264       -12.13898         8.19913
   H      -13.36653       -12.14771         6.35847
*
