# ORCA input file
# SCF done       -240.162848550380          0.000916609641
! CAM-B3LYP def2-SVP def2/J RIJCOSX Grid4 TightSCF
%maxcore 5000
%tddft
    Mode sTDDFT
    Ethresh 5.0
    maxcore 5000
end

%pal
  nprocs 6
  end
* xyz 0 1
   C       13.80546        -9.55952        -0.82650
   C       13.87168       -10.96221        -1.31278
   O       13.82233       -11.96012        -0.62522
   C       13.94869       -10.85673        -2.78294
   C       14.06028        -9.51466        -3.14564
   C       14.13277        -8.69834        -1.93605
   C       14.69746        -7.45023        -1.85401
   C       15.03599        -6.84296        -0.62791
   N       15.36656        -6.34504         0.35261
   C       15.09521        -6.68441        -2.96653
   N       15.41895        -6.00888        -3.83689
   C       14.12016        -9.14063        -4.49340
   C       14.07418       -10.12103        -5.45038
   C       13.97899       -11.48985        -5.11737
   C       13.91124       -11.88085        -3.74828
   C       13.81421       -13.24872        -3.42069
   C       13.78862       -14.19213        -4.41015
   C       13.85666       -13.81296        -5.76055
   C       13.94869       -12.49319        -6.10739
   C       13.39889        -9.30835         0.45357
   C       12.84647        -8.13804         0.99743
   S       12.14470        -6.87965         0.02995
   C       11.66977        -5.93785         1.39884
   C       11.99810        -6.60475         2.59534
   C       12.65852        -7.84920         2.36348
   C       13.06089        -8.64427         3.44939
   C       12.76941        -8.22237         4.72022
   C       13.15098        -9.04802         5.91449
   F       13.86973       -10.13454         5.60767
   F       13.87476        -8.34933         6.80769
   F       12.06712        -9.48867         6.58606
   C       12.06838        -7.02224         4.95821
   C       11.68620        -6.22626         3.91547
   C       11.04970        -4.68706         1.15704
   C       11.04296        -3.62248         1.99604
   C       10.41737        -2.35697         1.73728
   C       10.76556        -1.27210         2.51580
   C       10.18595        -0.01281         2.27951
   C       10.38761         1.21306         2.89863
   C       11.38867         1.51167         3.96194
   C       12.40812         2.56918         3.48498
   N       13.67763         2.35417         4.14387
   C       10.71104         1.91212         5.28296
   N        9.99104         0.76713         5.80798
   C        9.50359         2.15613         2.24870
   C        9.28194         3.46769         2.45100
   C        8.35198         4.25141         1.59269
   C        7.60351         3.43876         0.57597
   C        7.82396         2.12475         0.39578
   C        8.76597         1.43603         1.19699
   C        9.18560         0.12401         1.22769
   C        8.83205        -1.00996         0.45704
   C        9.43360        -2.19912         0.70079
   C        9.09101         5.31307         0.81862
   C       10.41762         5.31476         0.63453
   C       11.13484         6.27317        -0.13837
   S       10.35439         7.46495        -1.10525
   C       11.85223         8.17432        -1.62949
   C       12.94094         7.46145        -1.10197
   C       12.52845         6.39785        -0.23857
   C       13.49561         5.60834         0.41035
   C       14.82063         5.85559         0.17157
   C       15.87053         5.03055         0.85726
   F       15.42337         4.46579         1.99494
   F       16.31471         4.01948         0.09011
   F       16.95157         5.74929         1.19647
   C       15.23258         6.84061        -0.75279
   C       14.31209         7.62808        -1.38289
   C       11.79550         9.30142        -2.47619
   C       12.77018        10.23350        -2.66223
   C       12.65693        11.33095        -3.54993
   C       11.89309        11.45644        -4.67162
   C       11.62065        12.81593        -5.21741
   O       12.19273        13.83603        -4.90058
   C       10.49837        12.64054        -6.15650
   C       10.20520        11.28192        -6.27688
   C       11.16227        10.51095        -5.48629
   C       11.46775         9.18948        -5.69037
   C       12.56332         8.53672        -5.09135
   N       13.46069         7.96701        -4.65724
   C       10.77297         8.34093        -6.57575
   N       10.23119         7.59616        -7.26157
   C        9.14457        10.85007        -7.08352
   C        8.40961        11.78717        -7.76190
   C        8.69523        13.16762        -7.68071
   C        9.76622        13.61948        -6.85549
   C       10.04780        14.99867        -6.77674
   C        9.29994        15.89417        -7.49019
   C        8.24338        15.45468        -8.30426
   C        7.94608        14.12276        -8.39744
   H       14.18847        -8.10228        -4.77509
   H       14.11287        -9.85075        -6.49586
   H       13.76278       -13.52695        -2.37987
   H       13.71613       -15.23979        -4.15875
   H       13.83543       -14.57497        -6.52573
   H       14.00201       -12.19920        -7.14579
   H       13.42374       -10.17117         1.11217
   H       13.58291        -9.57296         3.28297
   H       11.83533        -6.74725         5.97511
   H       11.12393        -5.32703         4.10254
   H       10.62800        -4.58037         0.16588
   H       11.60914        -3.67784         2.91505
   H       11.49596        -1.38484         3.30343
   H       11.95948         0.60195         4.16309
   H       11.99385         3.58132         3.63972
   H       12.57219         2.43081         2.41185
   H       13.62183         2.57835         5.13033
   H       14.40819         2.91887         3.72831
   H       10.06860         2.79441         5.11830
   H       11.47631         2.18153         6.01628
   H        9.27312         0.47511         5.15268
   H        9.54523         0.99244         6.68977
   H        9.79046         4.02727         3.22368
   H        7.62529         4.76318         2.24280
   H        6.89367         3.97886        -0.03119
   H        7.27690         1.57489        -0.35625
   H        8.08490        -0.91426        -0.31711
   H        9.15427        -3.06606         0.12288
   H        8.47616         6.07184         0.35372
   H       11.01967         4.54595         1.09861
   H       13.19727         4.82172         1.08533
   H       16.28557         6.95732        -0.95531
   H       14.62538         8.34281        -2.12386
   H       10.84014         9.46081        -2.96402
   H       13.64929        10.21381        -2.03541
   H       13.21189        12.22566        -3.28366
   H        8.90054         9.80312        -7.16207
   H        7.58448        11.47163        -8.38397
   H       10.86121        15.32424        -6.14755
   H        9.51784        16.95019        -7.43194
   H        7.66541        16.17958        -8.85815
   H        7.13412        13.78214        -9.02353
*
