# ORCA input file
# SCF done       -199.104941644304          0.000369539059
! CAM-B3LYP def2-SVP def2/J RIJCOSX Grid4 TightSCF
%maxcore 5000
%tddft
    Mode sTDDFT
    Ethresh 5.0
    maxcore 5000
end

%pal
  nprocs 6
  end
* xyz 0 1
   C       -6.25209        -0.18293         2.61883
   S       -4.83067        -0.30331         3.54283
   C       -7.10129         0.79960         3.07963
   C       -8.36001         1.16974         2.54806
   C       -9.07057         2.17529         3.13857
   O      -10.27933         2.63004         2.73520
   C      -10.87598         2.03393         1.60965
   C       -8.53998         2.85392         4.29804
   O       -9.33536         3.82278         4.78538
   C       -8.89945         4.54384         5.91751
   C       -7.31969         2.50219         4.82127
   C       -6.57724         1.47245         4.22585
   C       -5.31247         0.98270         4.61896
   C       -4.54690         1.43938         5.70725
   N       -5.04303         2.40746         6.48948
   C       -4.12467         2.63739         7.43256
   C       -2.95186         1.77362         7.26892
   C       -1.96582         2.05933         8.32386
   O       -0.88105         1.54084         8.51328
   C       -2.61302         3.12783         9.09896
   C       -3.92594         3.45239         8.52922
   N       -4.52855         4.43824         9.23180
   C       -3.67643         4.74033        10.19095
   C       -2.46495         3.96482        10.16576
   C       -3.19973         0.99720         6.15996
   C       -2.37950         0.01326         5.54260
   C       -1.15835        -0.32825         6.01465
   C       -0.25214        -1.27897         5.43494
   C        0.99458        -1.42109         6.01374
   C        1.94143        -2.30403         5.46846
   C        3.24848        -2.60584         5.84252
   C        4.02074        -2.07534         6.99572
   C        4.13584        -0.52349         6.95745
   N        5.36683        -0.00854         7.51060
   C        3.40764        -2.57156         8.32446
   N        4.16235        -2.06224         9.46028
   C        3.74739        -3.55675         4.88074
   C        4.95612        -4.13291         4.74520
   C        5.23911        -5.10491         3.65406
   C        4.10857        -5.31980         2.69643
   C        2.90464        -4.73191         2.84574
   C        2.67384        -3.83681         3.91335
   C        1.58557        -3.07049         4.28188
   C        0.29506        -2.92684         3.72185
   C       -0.58797        -2.06190         4.28073
   C        5.52455        -6.44912         4.26633
   C        6.62811        -7.16662         4.01386
   C        6.85314        -8.45517         4.59086
   N        5.96789        -9.02603         5.39132
   C        6.50631       -10.21081         5.75052
   C        7.82409       -10.40956         5.13884
   C        8.38478       -11.70279         5.54219
   O        9.44710       -12.20418         5.22807
   C        7.33666       -12.25207         6.42431
   C        6.20892       -11.31061         6.52318
   N        5.23824       -11.80658         7.32980
   C        5.68917       -12.97361         7.72691
   C        6.99193       -13.31392         7.20007
   C        8.06739        -9.28226         4.38527
   C        9.17606        -8.91249         3.58461
   C       10.26553        -9.70893         3.41586
   C       11.41019        -9.42402         2.63846
   S       12.46162       -10.76139         2.26297
   C       11.90047        -8.24730         2.04678
   C       11.44518        -6.92493         2.15776
   C       12.06250        -5.88572         1.49937
   O       11.47899        -4.67652         1.71584
   C       12.06158        -3.46592         1.28703
   C       13.20590        -6.14242         0.66808
   O       13.74521        -5.07712         0.00139
   C       14.86362        -5.29436        -0.82246
   C       13.70215        -7.41462         0.58489
   C       13.08215        -8.48058         1.27285
   C       13.48553        -9.80016         1.30450
   H       -6.39642        -0.83782         1.78173
   H       -8.72611         0.64267         1.68237
   H      -11.82279         2.55215         1.46950
   H      -11.06605         0.96825         1.77360
   H      -10.25764         2.15884         0.71478
   H       -8.75939         3.88680         6.78012
   H       -9.69010         5.26154         6.12829
   H       -7.96476         5.07461         5.71713
   H       -6.89727         2.98665         5.68461
   H       -3.91719         5.50934        10.90456
   H       -1.64778         4.05637        10.85409
   H       -2.76389        -0.45479         4.65036
   H       -0.79838         0.16698         6.90706
   H        1.24014        -0.82727         6.88059
   H        5.04082        -2.47271         6.94776
   H        3.30905        -0.07424         7.51154
   H        4.06592        -0.18435         5.92032
   H        5.50002        -0.36326         8.45182
   H        6.16047        -0.30594         6.95318
   H        3.46844        -3.66354         8.33268
   H        2.34389        -2.29602         8.35355
   H        3.85182        -1.12543         9.69615
   H        4.01399        -2.64439        10.27592
   H        5.76750        -3.94235         5.43427
   H        6.13308        -4.77668         3.10586
   H        4.30222        -6.00846         1.88872
   H        2.11030        -4.92121         2.13815
   H        0.02723        -3.50723         2.85085
   H       -1.57223        -1.95556         3.85175
   H        4.76445        -6.85602         4.91639
   H        7.39468        -6.77390         3.35955
   H        5.10045       -13.58628         8.38778
   H        7.53158       -14.21798         7.40331
   H        9.11743        -7.96506         3.07315
   H       10.25709       -10.68522         3.88612
   H       10.61322        -6.66906         2.79032
   H       11.42948        -2.68549         1.71124
   H       12.06473        -3.37953         0.19873
   H       13.08035        -3.35078         1.66220
   H       15.72188        -5.65766        -0.24860
   H       15.10207        -4.32168        -1.25013
   H       14.63782        -5.99975        -1.62826
   H       14.57545        -7.63814        -0.00533
   H       14.32948       -10.23776         0.80910
*
