# ORCA input file
# SCF done       -139.323871025921          0.000648768204
! CAM-B3LYP def2-SVP def2/J RIJCOSX Grid4 TightSCF
%maxcore 5000
%tddft
    Mode sTDDFT
    Ethresh 5.0
    maxcore 5000
end

%pal
  nprocs 6
  end
* xyz 0 1
   C       -8.68650        -1.17310         3.29951
   N       -9.25080        -1.76484         4.33954
   C       -9.00106        -3.05680         4.48987
   C       -8.19398        -3.75926         3.61005
   C       -7.64723        -3.03859         2.54100
   N       -7.90691        -1.73146         2.40106
   C       -6.79784        -3.67633         1.55991
   C       -6.26995        -3.01316         0.51069
   C       -5.45049        -3.65435        -0.46425
   N       -5.15268        -4.94185        -0.38928
   C       -4.39708        -5.21214        -1.47366
   C       -4.20683        -4.01829        -2.30559
   C       -3.38828        -4.33881        -3.48033
   O       -3.04625        -3.60807        -4.39037
   C       -3.08897        -5.77040        -3.29011
   C       -3.72802        -6.26432        -2.05467
   N       -3.45570        -7.57888        -1.86683
   C       -2.70258        -7.92081        -2.88384
   C       -2.43233        -6.83902        -3.81031
   C       -4.86882        -2.99687        -1.66052
   C       -4.99856        -1.62496        -1.99393
   C       -4.49297        -1.10606        -3.14321
   C       -4.56639         0.25140        -3.53395
   N       -4.08847         0.64335        -4.76564
   C       -4.26687         1.98203        -4.89650
   C       -4.09487         3.06115        -5.74698
   C       -4.58007         4.18823        -5.05501
   N       -5.03764         3.79473        -3.81050
   C       -4.87152         2.45433        -3.69328
   C       -5.06336         1.37238        -2.84704
   C       -4.60330         5.51348        -5.52299
   C       -4.96627         6.61881        -4.80531
   C       -4.97461         7.90351        -5.38429
   N       -4.73239         8.09379        -6.68426
   C       -4.85005         9.40922        -6.89115
   C       -5.18113        10.12836        -5.64560
   C       -5.30362        11.57547        -5.90508
   O       -5.56096        12.46372        -5.12072
   C       -5.03722        11.66732        -7.34826
   C       -4.76441        10.33244        -7.91173
   N       -4.51661        10.41315        -9.23852
   C       -4.61709        11.69268        -9.52756
   C       -4.93807        12.52935        -8.39735
   C       -5.25812         9.17284        -4.66785
   C       -5.50849         9.28716        -3.26691
   C       -5.74006        10.44802        -2.62668
   C       -5.95824        10.50355        -1.19608
   N       -6.20057        11.70682        -0.67150
   C       -6.39667        11.77491         0.62989
   C       -6.35908        10.65498         1.44584
   C       -6.09587         9.43245         0.81706
   N       -5.89971         9.37206        -0.49567
   C       -6.02535         8.19290         1.58468
   C       -5.69307         7.02512         1.04996
   H       -8.88995        -0.11651         3.17592
   H       -9.46642        -3.53366         5.34302
   H       -7.99336        -4.81082         3.73543
   H       -6.59089        -4.72989         1.68083
   H       -6.48538        -1.96069         0.39885
   H       -2.34214        -8.93040        -2.97858
   H       -1.83822        -6.91356        -4.69968
   H       -5.52191        -0.98624        -1.29756
   H       -3.98858        -1.77198        -3.83236
   H       -3.67832         0.01348        -5.43493
   H       -3.67410         3.07878        -6.73175
   H       -5.46581         4.40760        -3.13929
   H       -5.49099         1.36874        -1.86535
   H       -4.29381         5.67567        -6.54567
   H       -5.24870         6.54055        -3.76516
   H       -4.46339        12.03250       -10.53723
   H       -5.06305        13.59386        -8.42170
   H       -5.49628         8.37973        -2.67864
   H       -5.77018        11.39433        -3.14697
   H       -6.59039        12.76328         1.02830
   H       -6.51960        10.71893         2.50993
   H       -6.25665         8.28253         2.63753
   H       -5.45715         6.95838         0.00171
   H       -5.64281         6.12131         1.63226
*
