# ORCA input file
# SCF done       -196.390724235179          0.000681770148
! CAM-B3LYP def2-SVP def2/J RIJCOSX Grid4 TightSCF
%maxcore 5000
%tddft
    Mode sTDDFT
    Ethresh 5.0
    maxcore 5000
end

%pal
  nprocs 6
  end
* xyz 0 1
   C       -9.97607        -0.42215        -3.74646
   C      -10.87907        -1.20501        -3.07493
   C      -11.45088        -2.38372        -3.60248
   N      -11.95529        -3.34700        -3.96928
   C      -11.35277        -0.99045        -1.76309
   N      -11.76504        -0.90149        -0.69433
   C       -9.42988        -0.70906        -5.06503
   C       -8.46005         0.27487        -5.38472
   C       -7.74552         0.25859        -6.55895
   C       -8.00274        -0.77286        -7.46592
   C       -8.97886        -1.74782        -7.14277
   C       -9.69815        -1.73407        -5.95452
   S       -9.13242        -2.92589        -8.40709
   C       -7.91565        -2.12250        -9.33647
   C       -7.41204        -1.02158        -8.73619
   C       -8.37175         1.25760        -4.29337
   O       -7.62989         2.21401        -4.24208
   C       -9.35922         0.81196        -3.27107
   C       -9.59713         1.38922        -2.06481
   C       -9.06833         2.59661        -1.51825
   C       -8.73213         3.76031        -2.14484
   C       -8.46260         4.76772        -1.13577
   C       -8.03801         6.07407        -1.42110
   N       -7.68787         7.14056        -1.65726
   C       -8.67883         4.23673         0.10565
   C       -9.02435         2.84895        -0.05767
   C       -9.12845         1.90302         0.92608
   C       -9.33120         2.11991         2.37933
   C       -9.22316         0.90111         2.98862
   C       -8.94429        -0.10199         1.98520
   C       -8.92571         0.49001         0.75159
   C       -8.71280        -1.45711         2.26343
   N       -8.51352        -2.56070         2.50498
   C       -9.70647         3.35150         2.98795
   C       -9.66832         3.58439         4.32091
   C      -10.06469         4.82937         4.89922
   N      -10.40250         5.85596         4.13074
   N      -10.78516         6.99544         4.59034
   C      -10.94504         7.27120         5.87848
   C      -10.57570         6.26589         6.82242
   C      -10.10347         5.01458         6.31299
   N       -9.79489         4.16018         7.28287
   S      -10.07858         4.86489         8.69986
   N      -10.60525         6.28250         8.15203
   C      -11.40419         8.56617         6.27236
   C      -11.21467         9.14224         7.49858
   C      -11.62213        10.52264         7.42008
   C      -11.61999        11.40992         8.50567
   N      -11.61310        12.12823         9.40059
   C      -12.00355        10.80721         6.13113
   C      -11.93745         9.59832         5.36575
   C      -12.37398         9.42592         4.07727
   C      -12.53478        10.48354         3.06083
   C      -13.04238         9.89769         1.93454
   C      -13.26199         8.49024         2.20358
   C      -12.85508         8.20724         3.47983
   C      -13.80667         7.57622         1.29179
   N      -14.24638         6.81840         0.55005
   C      -12.07541        11.82855         3.17889
   C      -12.57387        12.85916         2.45014
   C      -12.03882        14.16388         2.53409
   C      -12.38868        15.27950         1.83495
   C      -13.28566        15.51698         0.72286
   C      -13.63519        14.64392        -0.27530
   C      -14.46950        14.98798        -1.36079
   N      -15.15273        15.19925        -2.25859
   C      -13.15706        13.32628        -0.42265
   N      -12.79483        12.25650        -0.63135
   C      -13.60521        16.94291         0.72763
   C      -12.75847        17.60072         1.65710
   C      -11.91368        16.60204         2.33207
   O      -11.04627        16.79019         3.15495
   C      -12.79805        18.95904         1.86089
   C      -13.72326        19.70367         1.12354
   C      -14.57641        19.03660         0.21165
   C      -14.53165        17.66362        -0.00110
   S      -15.64875        20.15092        -0.57533
   C      -14.95726        21.47272         0.30026
   C      -13.97020        21.10535         1.14607
   H       -7.01105         1.02087        -6.76809
   H      -10.42844        -2.50053        -5.75682
   H       -7.64708        -2.53140       -10.29116
   H       -6.64862        -0.39782        -9.16457
   H      -10.29085         0.88522        -1.40464
   H       -8.70168         3.94773        -3.20014
   H       -8.49107         4.73121         1.03899
   H       -9.35736         0.67966         4.03033
   H       -8.67126         0.00339        -0.16982
   H      -10.06398         4.14949         2.35337
   H       -9.32306         2.83788         5.02066
   H      -10.80693         8.67078         8.37218
   H      -12.42085        11.73574         5.79103
   H      -13.20648        10.36786         0.98190
   H      -12.99496         7.27476         3.98742
   H      -11.25962        12.01665         3.86506
   H      -13.42462        12.68192         1.81149
   H      -11.28220        14.33287         3.29512
   H      -12.13570        19.43106         2.56983
   H      -15.20869        17.20210        -0.70053
   H      -15.33996        22.45931         0.12453
   H      -13.42663        21.79018         1.77141
*
