# ORCA input file
# SCF done       -222.352576877285          0.000830170463
! CAM-B3LYP def2-SVP def2/J RIJCOSX Grid4 TightSCF
%maxcore 5000
%tddft
    Mode sTDDFT
    Ethresh 5.0
    maxcore 5000
end

%pal
  nprocs 6
  end
* xyz 0 1
   C       14.38865        13.02527        -6.06867
   C       13.70510        14.16850        -6.37672
   F       14.36359        15.20741        -6.91955
   C       12.32893        14.30655        -6.14758
   C       11.64195        13.26171        -5.59537
   C       12.29681        12.05934        -5.25761
   C       13.69650        11.93770        -5.50115
   C       14.37333        10.73794        -5.18185
   C       13.67218         9.69657        -4.63558
   C       12.27626         9.83054        -4.37760
   C       11.59760        10.97560        -4.68178
   C       11.77148         8.59149        -3.75774
   O       10.63617         8.31900        -3.44295
   C       12.97917         7.74631        -3.53981
   C       14.08818         8.35116        -4.25314
   C       15.21063         7.70588        -4.69810
   C       15.43398         6.32395        -4.52874
   N       15.62849         5.19407        -4.46856
   C       16.22233         8.32774        -5.45880
   N       17.07656         8.79708        -6.06423
   C       12.92166         6.67349        -2.71388
   C       14.01817         5.98854        -2.10674
   C       15.14605         6.55776        -1.58174
   C       15.92118         5.53041        -0.92965
   C       17.14933         5.74161        -0.29159
   N       18.14440         5.92174         0.25222
   C       15.25614         4.33466        -1.03780
   C       14.04358         4.56050        -1.76760
   C       13.15631         3.61052        -2.22517
   C       13.03587         2.20198        -1.76371
   C       12.28057         1.53278        -2.70932
   C       11.85326         2.46974        -3.69251
   C       12.34395         3.72863        -3.37868
   C       11.06131         2.15008        -4.80573
   N       10.41057         1.87817        -5.71070
   C       13.46408         1.65343        -0.54759
   C       13.77944         2.36841         0.58536
   C       14.27667         1.84859         1.78147
   S       14.15837         2.83213         3.21467
   C       14.83582         1.59970         4.23521
   C       15.17617         0.46429         3.47334
   C       14.88236         0.60223         2.08953
   C       15.25391        -0.42704         1.22487
   C       15.81196        -1.60524         1.69551
   O       16.11592        -2.48727         0.72514
   C       16.76854        -3.71553         0.97616
   C       15.99027        -1.78510         3.10482
   O       16.46292        -2.98669         3.52759
   C       16.65326        -3.20317         4.90742
   C       15.68729        -0.74888         3.95920
   C       15.08437         1.83476         5.60488
   C       16.18688         1.41519         6.31854
   C       16.16789         2.05825         7.59162
   C       17.13771         1.93121         8.59466
   N       17.92961         1.87132         9.42368
   C       15.05599         2.87804         7.67557
   C       14.31045         2.75032         6.47998
   C       13.02776         3.20366         6.23107
   C       12.32244         4.33665         6.86740
   C       11.04829         4.35862         6.36090
   C       10.89273         3.25595         5.45105
   C       12.08778         2.57972         5.35629
   C        9.71181         2.93214         4.77190
   N        8.75419         2.66786         4.19626
   C       12.91481         5.25294         7.77672
   C       12.27041         6.23443         8.45758
   C       12.92425         7.05549         9.41942
   C       13.95179         6.68701        10.23073
   C       14.84589         7.70753        10.85205
   O       14.62984         8.89261        10.95006
   C       16.06019         6.96340        11.24132
   C       17.25128         7.43740        11.71183
   C       18.30615         6.52932        11.95744
   C       18.11306         5.14112        11.69418
   C       19.17874         4.24431        11.90140
   C       20.37019         4.72340        12.37077
   C       20.57639         6.08127        12.65371
   C       19.55545         6.96608        12.44411
   F       21.39372         3.87581        12.57524
   C       16.86132         4.67272        11.23319
   C       15.85039         5.57014        11.02198
   C       14.47796         5.37920        10.56893
   C       13.76163         4.21759        10.69428
   C       12.38127         4.10903        10.42634
   N       11.25816         3.95851        10.24533
   C       14.31221         2.99997        11.14700
   N       14.70738         1.97327        11.47424
   H       15.44740        12.95276        -6.26261
   H       11.84336        15.23256        -6.41169
   H       10.58170        13.34426        -5.40958
   H       15.43356        10.67460        -5.36991
   H       10.53857        11.05300        -4.48624
   H       11.92434         6.35866        -2.42021
   H       15.41401         7.59860        -1.60119
   H       15.63481         3.37701        -0.73798
   H       11.99978         0.49653        -2.68602
   H       12.23913         4.60630        -3.98681
   H       13.42506         0.57462        -0.48297
   H       13.56024         3.42945         0.59408
   H       15.14817        -0.33550         0.15780
   H       16.92829        -4.15136        -0.00948
   H       16.15075        -4.38566         1.57591
   H       17.73065        -3.56740         1.46927
   H       15.71508        -3.11022         5.46192
   H       17.39665        -2.51663         5.32277
   H       17.02145        -4.22413         4.99011
   H       15.81763        -0.86135         5.02151
   H       16.99465         0.80581         5.96119
   H       14.75834         3.40093         8.56045
   H       10.27456         5.06868         6.58049
   H       12.24109         1.65939         4.82577
   H       13.98200         5.16337         7.92526
   H       11.23408         6.45404         8.24588
   H       12.61330         8.09274         9.48869
   H       17.39083         8.49341        11.88855
   H       19.05045         3.19555        11.68381
   H       21.53751         6.39931        13.02577
   H       19.69454         8.01707        12.64837
   H       16.74583         3.61767        11.04004
*
