# ORCA input file
# SCF done       -201.761331236949          0.000912792712
! CAM-B3LYP def2-SVP def2/J RIJCOSX Grid4 TightSCF
%maxcore 5000
%tddft
    Mode sTDDFT
    Ethresh 5.0
    maxcore 5000
end

%pal
  nprocs 6
  end
* xyz 0 1
   C        0.25093         1.71506        -0.36149
   C        0.93838         0.95484         0.54488
   C        1.18849        -0.42562         0.38833
   N        1.41595        -1.54830         0.32526
   C        1.45339         1.43919         1.76557
   N        1.89782         1.78442         2.76612
   C       -0.30499         1.25299        -1.62588
   C       -1.09150         2.29731        -2.19557
   C       -1.72243         2.15251        -3.39812
   C       -1.57104         0.94457        -4.11212
   C       -0.77483        -0.09943        -3.55679
   C       -0.15169         0.07012        -2.30068
   C       -0.61761        -1.29425        -4.28765
   C       -1.21582        -1.45137        -5.50811
   C       -2.00028        -0.42358        -6.05269
   C       -2.17473         0.74913        -5.36940
   C       -1.04176         3.47444        -1.32295
   O       -1.70341         4.48847        -1.39663
   C       -0.05298         3.13485        -0.25376
   C        0.46526         4.05550         0.59715
   C        0.23404         5.46139         0.44826
   C       -0.12046         6.29857         1.46136
   C       -0.55736         7.55472         0.88600
   C       -1.03144         8.65272         1.61866
   N       -1.40305         9.56537         2.20656
   C       -0.44146         7.49194        -0.47387
   C        0.16222         6.23132        -0.82039
   C        0.71251         5.87289        -2.02222
   C        0.38872         6.45519        -3.34251
   C        0.53868         5.45859        -4.25700
   C        1.14774         4.31019        -3.61301
   C        1.32738         4.59050        -2.28916
   C        1.45011         3.09808        -4.24647
   N        1.65032         2.08768        -4.75376
   C       -0.00059         7.79978        -3.67634
   C        0.47782         8.90312        -3.07888
   C        0.05114        10.25352        -3.41215
   C       -0.28525        11.11762        -2.38615
   C       -0.92547        12.32804        -2.63786
   C       -1.22749        12.72954        -3.92431
   C       -0.73521        11.94584        -5.01370
   C       -0.09885        10.70090        -4.75435
   C        0.40890         9.99695        -5.86690
   C        0.24374        10.50337        -7.12758
   C       -0.41441        11.73449        -7.27030
   N       -0.87006        12.42436        -6.26456
   C       -2.00647        13.92897        -4.15969
   C       -1.87751        15.12065        -3.52874
   C       -2.77069        16.08084        -4.16767
   C       -2.94259        17.40561        -3.74880
   N       -3.07580        18.49335        -3.40608
   C       -3.39976        15.48052        -5.22266
   C       -2.99970        14.10147        -5.24468
   C       -3.49371        13.09286        -6.02740
   C       -4.11110        13.18955        -7.36766
   C       -4.41569        11.91468        -7.76385
   C       -4.06936        10.99665        -6.70408
   C       -3.50844        11.69841        -5.67228
   C       -4.23525         9.60612        -6.75579
   N       -4.33329         8.46347        -6.80649
   C       -4.20303        14.38451        -8.13613
   C       -4.85689        14.48629        -9.32197
   C       -4.95230        15.66406       -10.10726
   C       -4.98377        16.96252        -9.68220
   C       -4.99629        18.12451       -10.55465
   C       -4.56070        18.15866       -11.85372
   C       -4.56690        19.31831       -12.65617
   N       -4.55512        20.22724       -13.35723
   C       -4.00929        17.05834       -12.54307
   N       -3.52954        16.21122       -13.15232
   C       -5.45295        19.26743        -9.77633
   C       -5.63032        18.84812        -8.42686
   C       -5.31244        17.41809        -8.30676
   O       -5.38383        16.75236        -7.29284
   C       -6.03995        19.70936        -7.44955
   C       -6.30577        21.05478        -7.78780
   C       -6.14680        21.47914        -9.13912
   C       -5.71312        20.56537       -10.12746
   C       -6.42797        22.82109        -9.46597
   C       -6.84384        23.70309        -8.50568
   C       -6.99607        23.28499        -7.17528
   C       -6.73150        21.98907        -6.82340
   H       -2.31371         2.95877        -3.80705
   H        0.44841        -0.73588        -1.90884
   H       -0.01159        -2.08204        -3.86548
   H       -1.08629        -2.36873        -6.06237
   H       -2.46407        -0.56462        -7.01745
   H       -2.77594         1.54501        -5.78401
   H        1.04357         3.74419         1.45768
   H       -0.17890         6.05670         2.50641
   H       -0.71695         8.26330        -1.16363
   H        0.31725         5.51106        -5.30697
   H        1.83478         3.97359        -1.57510
   H       -0.67688         7.89446        -4.51693
   H        1.16128         8.81214        -2.24333
   H       -0.12181        10.81789        -1.36054
   H       -1.25139        12.93309        -1.80524
   H        0.95439         9.07814        -5.70956
   H        0.62855         9.98986        -7.99435
   H       -0.55379        12.17922        -8.24745
   H       -1.20773        15.36759        -2.72629
   H       -4.17012        15.92151        -5.82528
   H       -4.81479        11.60238        -8.71063
   H       -3.22063        11.29748        -4.71934
   H       -3.67262        15.24336        -7.75977
   H       -5.30030        13.60048        -9.75785
   H       -5.07030        15.49076       -11.17151
   H       -6.15731        19.36956        -6.43115
   H       -5.60544        20.91516       -11.14208
   H       -6.30658        23.13951       -10.49096
   H       -7.05693        24.72891        -8.76651
   H       -7.32419        23.99459        -6.43065
   H       -6.84524        21.66077        -5.80079
*
