# ORCA input file
# SCF done       -211.971879013168          0.000593596257
! CAM-B3LYP def2-SVP def2/J RIJCOSX Grid4 TightSCF
%maxcore 5000
%tddft
    Mode sTDDFT
    Ethresh 5.0
    maxcore 5000
end

%pal
  nprocs 6
  end
* xyz 0 1
   C       -3.56321         5.67587        -7.47189
   C       -3.80642         6.65884        -6.54108
   C       -4.97491         7.43789        -6.48241
   N       -5.88803         8.13301        -6.42738
   C       -2.88827         6.93783        -5.51808
   N       -2.17014         7.13638        -4.64175
   C       -4.55147         5.07426        -8.35652
   C       -4.05500         3.80824        -8.78621
   C       -4.78780         2.99257        -9.59740
   C       -6.06556         3.41709       -10.03012
   C       -6.56153         4.68570        -9.61193
   C       -5.78409         5.50733        -8.76330
   C       -7.83509         5.09645       -10.05451
   C       -8.58648         4.29325       -10.86859
   C       -8.09815         3.04411       -11.27879
   C       -6.86479         2.61553       -10.86813
   C       -2.70409         3.59866        -8.22587
   O       -1.99641         2.62218        -8.33255
   C       -2.36393         4.87649        -7.54713
   C       -1.06952         5.15244        -7.21268
   C       -0.47355         6.42586        -7.03346
   C       -0.95127         7.63220        -7.53511
   C       -0.03448         8.66735        -7.21267
   C       -0.18861        10.02142        -7.51987
   N       -0.33495        11.14506        -7.71450
   C        0.99584         8.11776        -6.46206
   C        0.74198         6.72240        -6.30238
   C        1.49634         5.89994        -5.45036
   C        2.25031         6.44863        -4.29028
   C        3.10807         5.42642        -3.83788
   C        2.83413         4.27994        -4.58146
   C        1.83696         4.56072        -5.55054
   C        3.45530         3.03346        -4.41048
   N        3.96673         2.01589        -4.26932
   C        2.02208         7.66348        -3.68575
   C        0.88425         8.45981        -3.91332
   C        0.81643         9.82047        -3.73369
   S        2.18834        10.81364        -3.31525
   C        1.33457        12.30836        -3.60404
   C        0.01488        12.04665        -4.07135
   C       -0.28914        10.65820        -4.09178
   C       -1.53100        10.20517        -4.49644
   C       -2.49043        11.10692        -4.94951
   O       -3.64640        10.55967        -5.34913
   C       -4.67976        11.37652        -5.85944
   C       -2.18062        12.47726        -4.97926
   C       -0.95922        12.93517        -4.54699
   C        2.04217        13.47648        -3.32969
   C        1.56340        14.76842        -3.35281
   C        2.32647        15.90677        -3.07742
   C        3.70927        16.00776        -2.95206
   C        4.05676        17.37674        -2.85874
   C        5.36265        17.87851        -2.77920
   N        6.43221        18.29458        -2.74915
   C        2.90282        18.14980        -2.94022
   C        1.79273        17.28571        -3.07926
   C        0.45694        17.66132        -3.17693
   C       -0.06133        18.94900        -3.69328
   C       -1.40998        18.98816        -3.41729
   C       -1.77866        17.76291        -2.78281
   C       -0.65721        16.95203        -2.67253
   C       -3.06825        17.42898        -2.35351
   N       -4.12687        17.13927        -2.01497
   C        0.63586        19.89259        -4.48460
   C        1.79462        19.64123        -5.15885
   C        2.53539        20.64247        -5.81954
   C        3.80151        20.44916        -6.30226
   C        4.65362        21.43970        -6.93053
   C        4.27019        22.67141        -7.39726
   C        5.14339        23.58745        -8.01974
   N        5.79932        24.37815        -8.53242
   C        2.95792        23.18504        -7.35091
   N        1.91376        23.66396        -7.35426
   C        5.99694        20.87885        -7.01787
   C        5.96294        19.54063        -6.53058
   C        4.59239        19.20108        -6.12621
   O        4.20292        18.12129        -5.72443
   C        7.08510        18.76599        -6.46439
   C        8.31707        19.30308        -6.89838
   C        8.35876        20.63717        -7.39765
   C        7.18041        21.41736        -7.44803
   C        9.59315        21.16076        -7.83224
   C       10.73295        20.40542        -7.77539
   C       10.69142        19.09374        -7.27974
   C        9.50906        18.55420        -6.85079
   H       -4.40084         2.03278        -9.90593
   H       -6.17686         6.46695        -8.46300
   H       -8.20788         6.05830        -9.73383
   H       -9.56185         4.61625       -11.20048
   H       -8.70350         2.42297       -11.92185
   H       -6.48370         1.65446       -11.18121
   H       -0.41069         4.29253        -7.20108
   H       -1.83276         7.76999        -8.13422
   H        1.90191         8.62200        -6.18620
   H        3.78459         5.49140        -3.00675
   H        1.50838         3.85755        -6.29145
   H        2.75971         8.02371        -2.97624
   H       -0.02350         7.96058        -4.22561
   H       -1.78020         9.15714        -4.48625
   H       -5.02941        12.09178        -5.10982
   H       -5.48496        10.68790        -6.11210
   H       -4.35529        11.90947        -6.75751
   H       -2.89785        13.18799        -5.35695
   H       -0.75777        13.98969        -4.62295
   H        3.07176        13.32828        -3.03023
   H        0.52637        14.93338        -3.59002
   H        4.41823        15.20207        -2.96558
   H        2.85979        19.21716        -2.83642
   H       -2.09537        19.77166        -3.68106
   H       -0.62875        16.01717        -2.14464
   H        0.17482        20.86969        -4.57983
   H        2.19696        18.64030        -5.17899
   H        2.09382        21.62977        -5.87520
   H        7.03342        17.75920        -6.07806
   H        7.24787        22.42756        -7.81967
   H        9.62075        22.17168        -8.21184
   H       11.67361        20.81569        -8.11105
   H       11.60103        18.51334        -7.23922
   H        9.47016        17.54563        -6.46641
*
