# ORCA input file
# SCF done       -175.088124330099          0.000838393182
! CAM-B3LYP def2-SVP def2/J RIJCOSX Grid4 TightSCF
%maxcore 5000
%tddft
    Mode sTDDFT
    Ethresh 5.0
    maxcore 5000
end

%pal
  nprocs 6
  end
* xyz 0 1
   C       -3.67322         6.47275        -5.62299
   C       -3.51461         5.15880        -5.27307
   C       -4.23147         4.09744        -5.86741
   N       -4.77512         3.19244        -6.31713
   C       -2.68500         4.67497        -4.23656
   N       -2.08309         4.20102        -3.38179
   C       -4.65452         6.98407        -6.56887
   C       -4.67683         8.40407        -6.46853
   C       -5.52969         9.16760        -7.21398
   C       -6.41138         8.53271        -8.11590
   C       -6.38461         7.11215        -8.23363
   C       -5.49270         6.34831        -7.44696
   C       -7.26679         6.48955        -9.14018
   C       -8.13682         7.23176        -9.89162
   C       -8.16402         8.62972        -9.77316
   C       -7.31942         9.26645        -8.90480
   C       -3.68585         8.85188        -5.47781
   O       -3.50042         9.99382        -5.12124
   C       -2.97710         7.61319        -5.03569
   C       -1.80955         7.49773        -4.34562
   C       -1.01026         8.46762        -3.68778
   C       -1.25036         9.87717        -3.36427
   N       -0.26712        10.45327        -2.72688
   C        0.67600         9.48857        -2.54584
   C        0.23255         8.21638        -3.13428
   C        1.26782         7.22301        -3.01401
   S        1.29479         5.70186        -3.62807
   C        2.33113         7.90991        -2.31819
   C        1.93556         9.30394        -2.03900
   N        2.96134         9.98789        -1.46383
   C        3.96085         9.15310        -1.42158
   C        3.65237         7.82674        -1.96483
   C        4.60929         6.76773        -2.10237
   O        4.32309         5.49016        -1.80097
   C        5.42892         4.76505        -2.01500
   C        6.44867         5.54053        -2.48262
   C        5.92057         6.84936        -2.55169
   S        6.61828         8.31943        -3.23083
   C        5.23172         8.68254        -4.22159
   C        4.53456         7.68203        -5.02345
   N        3.44044         8.12450        -5.56992
   C        3.33227         9.42572        -5.18120
   C        4.50719         9.83320        -4.38647
   C        4.32414        11.16625        -3.86989
   S        5.31941        12.00880        -2.87065
   C        3.00246        11.52484        -4.31055
   C        2.41467        10.44105        -5.11896
   N        1.10735        10.70123        -5.39156
   C        0.82287        11.79799        -4.74267
   C        1.95728        12.36970        -4.01270
   C        1.93182        13.45663        -3.09489
   C        2.99555        14.27415        -2.89492
   C        3.21421        15.21873        -1.81164
   C        2.32282        15.55131        -0.82709
   C        2.59549        16.46773         0.21126
   N        2.75010        17.20344         1.07874
   C        0.99959        15.06968        -0.73027
   N       -0.09125        14.73960        -0.59303
   C        4.56603        15.74377        -1.95501
   C        5.13305        15.24506        -3.16341
   C        4.14952        14.39037        -3.84895
   O        4.17575        14.01217        -4.99913
   C        6.39428        15.58250        -3.56127
   C        7.16677        16.44103        -2.74837
   C        6.60809        16.94423        -1.53762
   C        5.29731        16.58321        -1.15461
   C        7.38561        17.80691        -0.73760
   C        8.65406        18.15544        -1.11253
   C        9.20429        17.65707        -2.30342
   C        8.47701        16.81814        -3.10312
   H       -5.53118        10.24291        -7.11424
   H       -5.49293         5.27612        -7.56274
   H       -7.24395         5.41313        -9.22645
   H       -8.80994         6.74545       -10.58156
   H       -8.85755         9.19920       -10.37352
   H       -7.33561        10.34226        -8.80934
   H       -1.37755         6.50405        -4.28805
   H       -2.14049        10.42599        -3.61235
   H        4.90391         9.44492        -0.99423
   H        5.37231         3.71505        -1.80653
   H        7.43780         5.23375        -2.75030
   H        4.87492         6.67604        -5.19452
   H       -0.15183        12.24627        -4.81588
   H        1.02848        13.55312        -2.50715
   H        6.80034        15.19189        -4.48238
   H        4.90319        16.98072        -0.23276
   H        6.95736        18.18776         0.17802
   H        9.24124        18.81771        -0.49404
   H       10.20743        17.94195        -2.58346
   H        8.89519        16.43214        -4.02126
*
