# ORCA input file
# SCF done       -194.556785741369          0.000572496567
! CAM-B3LYP def2-SVP def2/J RIJCOSX Grid4 TightSCF
%maxcore 5000
%tddft
    Mode sTDDFT
    Ethresh 5.0
    maxcore 5000
end

%pal
  nprocs 6
  end
* xyz 0 1
   C        3.71246         6.05486         2.14312
   C        2.37481         6.33566         2.11031
   F        1.96673         7.57600         1.78722
   C        1.39784         5.37417         2.40194
   C        1.79379         4.10754         2.73085
   C        3.16003         3.76279         2.77972
   C        4.13822         4.75633         2.48311
   C        5.51549         4.43834         2.53917
   C        5.89630         3.16886         2.87733
   C        4.91425         2.17394         3.15410
   C        3.57936         2.45532         3.11431
   C        5.58781         0.89473         3.45169
   O        5.08483        -0.15675         3.77715
   C        7.03221         1.14971         3.20465
   C        7.21758         2.57387         3.05908
   C        8.36540         3.27455         3.33443
   C        9.54577         2.66620         3.80458
   N       10.50876         2.20313         4.22560
   C        8.46554         4.67737         3.26450
   N        8.60735         5.81469         3.19812
   C        7.88932         0.09247         3.08396
   C        9.14064         0.03201         2.44714
   S        9.64388         1.17029         1.23821
   C       11.16047         0.38892         0.97608
   C       11.26285        -0.76881         1.76744
   C       10.11529        -0.97270         2.59344
   C       10.05621        -2.07704         3.46156
   C       11.09260        -2.96685         3.46743
   F       11.05670        -4.03218         4.27752
   C       12.20290        -2.79848         2.60974
   F       13.17741        -3.72088         2.61815
   C       12.29579        -1.72596         1.76999
   C       12.06976         0.99490         0.06961
   C       13.41821         0.87677         0.08064
   C       14.24499         1.55047        -0.86927
   C       15.59048         1.58579        -0.88278
   C       16.48856         0.96867         0.13649
   C       16.30456         2.36447        -1.96340
   N       16.70318         3.65996        -1.46304
   C       17.92938         3.92999        -0.97927
   C       18.22885         5.04979        -0.27062
   C       19.51584         5.41733         0.18199
   S       19.71601         6.91133         1.02318
   C       21.43126         6.66221         1.20539
   C       21.79549         5.42778         0.61938
   C       20.73542         4.72734         0.04907
   O       20.77674         3.52609        -0.57116
   C       23.21997         4.97334         0.63994
   F       24.04013         5.80821        -0.01679
   F       23.70590         4.84065         1.88398
   F       23.39697         3.76546         0.05662
   C       22.33771         7.53065         1.82070
   C       22.11931         8.74663         2.42982
   C       23.13684         9.57892         3.03958
   C       24.48547         9.33863         3.11223
   C       25.40842        10.20810         3.73039
   N       26.21392        10.86626         4.21683
   C       25.16911         8.21722         2.59513
   N       25.82157         7.35357         2.21110
   C       22.46958        10.76240         3.57952
   C       21.08365        10.66537         3.30538
   C       20.82570         9.41039         2.57945
   O       19.73695         9.01923         2.18894
   C       20.17911        11.62632         3.68485
   C       20.66654        12.74335         4.37150
   C       22.05199        12.83400         4.64184
   C       22.96606        11.85981         4.25676
   S       22.44112        14.29462         5.49889
   C       20.75991        14.75638         5.48280
   C       19.94723        13.86513         4.86753
  Br       20.23620        16.37295         6.27679
   H        4.43708         6.82146         1.91727
   H        0.35719         5.65405         2.36093
   H        1.05963         3.34980         2.95943
   H        6.23603         5.20598         2.30484
   H        2.85045         1.69083         3.33750
   H        7.50302        -0.84927         3.46199
   H        9.21237        -2.23451         4.11263
   H       13.13976        -1.64726         1.10640
   H       11.61928         1.67730        -0.64173
   H       13.89836         0.29038         0.84670
   H       13.71307         2.06886        -1.65849
   H       15.96459         0.71671         1.05225
   H       17.29907         1.65491         0.38057
   H       16.93832         0.06048        -0.26695
   H       15.64996         2.50938        -2.82802
   H       17.20267         1.83255        -2.28526
   H       15.95114         4.27371        -1.18097
   H       18.70171         3.22089        -1.23493
   H       17.43954         5.75004        -0.03185
   H       21.67392         3.17024        -0.59728
   H       23.36577         7.19502         1.81503
   H       19.12965        11.51999         3.45940
   H       24.01086        11.97876         4.48885
   H       18.88473        13.99133         4.76656
*
