# ORCA input file
# SCF done       -175.827589723538          0.000490434636
! CAM-B3LYP def2-SVP def2/J RIJCOSX Grid4 TightSCF
%maxcore 5000
%tddft
    Mode sTDDFT
    Ethresh 5.0
    maxcore 5000
end

%pal
  nprocs 6
  end
* xyz 0 1
   C      -17.19532        -1.76129         1.77122
   C      -17.29203        -1.61503         3.14256
   C      -16.51206        -2.35234         4.04595
   N      -15.85531        -2.91020         4.80872
   C      -18.09795        -0.65987         3.78714
   N      -18.73288         0.09603         4.37593
   C      -16.30735        -2.71844         1.10590
   C      -16.28554        -2.41200        -0.27389
   C      -15.45267        -3.04244        -1.16257
   C      -14.62413        -4.05784        -0.66783
   C      -14.73796        -4.43268         0.68823
   C      -15.56335        -3.77281         1.59401
   S      -13.68842        -5.76554         1.06955
   C      -13.05392        -5.73294        -0.55139
   C      -13.63352        -4.81397        -1.35622
  Br      -11.64926        -6.89198        -0.99932
   C      -17.26613        -1.33698        -0.54011
   O      -17.60720        -0.95219        -1.64465
   C      -17.77650        -0.91896         0.77413
   C      -18.77876         0.04155         0.97285
   C      -19.09113         1.10240         0.14213
   C      -18.23869         1.67578        -0.80565
   C      -18.57460         2.47462        -1.91129
   C      -17.51805         2.74046        -2.75198
   C      -16.30918         2.18761        -2.31026
   S      -16.51876         1.45356        -0.74402
   C      -15.10700         1.93396        -2.97225
   C      -14.64946         2.25790        -4.25649
   C      -13.48636         1.61207        -4.59979
   C      -12.98713         0.74672        -3.60742
   S      -14.00105         0.83692        -2.19094
   C      -11.91548        -0.12921        -3.72293
   C      -11.51967        -1.06905        -2.78324
   S      -12.33531        -1.17826        -1.24618
   C      -11.34081        -2.47582        -0.67380
   C      -10.41213        -2.86331        -1.67209
   C      -10.49927        -2.06412        -2.85516
   C       -9.62272        -2.34776        -3.92310
   S       -9.62995        -1.41049        -5.42214
   C       -8.72647        -3.39279        -3.81128
   C       -8.67199        -4.18002        -2.66401
   C       -9.49854        -3.92361        -1.60087
   C      -11.62529        -2.89922         0.63334
   C      -11.00909        -3.82417         1.42702
   C      -11.50817        -4.15437         2.70666
   O      -12.62415        -3.54615         3.20389
   C      -12.91785        -4.08821         4.37658
   C      -11.99640        -5.05551         4.70695
   N      -11.92731        -5.73253         5.94513
   O      -12.92855        -5.76103         6.63006
   O      -10.84976        -6.19911         6.26756
   C      -11.07176        -5.12397         3.61862
   N      -10.01268        -5.96350         3.44775
   C       -9.91420        -7.22669         3.96290
   C      -10.92984        -8.08437         4.36744
   C      -10.42005        -9.34996         4.81147
   N      -11.26282       -10.31956         5.23182
   C      -12.52885       -10.03549         5.18708
   C      -13.05026        -8.78203         4.73267
   C      -14.53198        -8.57554         4.70862
   C      -14.94676        -7.14458         4.39626
   N      -12.25605        -7.82244         4.33788
   C       -9.03639        -9.45776         4.74063
   S       -8.36499        -7.97770         4.12993
   C       -8.24883       -10.59165         5.10078
   C       -6.91840       -10.65364         5.03337
   H      -15.43342        -2.76054        -2.20359
   H      -15.59896        -4.08952         2.62255
   H      -13.36849        -4.66331        -2.38716
   H      -19.41917        -0.09699         1.83618
   H      -20.07090         1.55210         0.24305
   H      -19.59103         2.76445        -2.11206
   H      -17.60430         3.26853        -3.68509
   H      -15.18169         2.93081        -4.90465
   H      -12.99950         1.71400        -5.55394
   H      -11.37962        -0.07834        -4.65762
   H       -8.64911        -2.09878        -6.00764
   H       -8.05794        -3.61396        -4.63083
   H       -7.97193        -4.99949        -2.62216
   H       -9.45554        -4.54986        -0.72863
   H      -12.47770        -2.39619         1.07618
   H      -10.13223        -4.36258         1.10829
   H      -13.78150        -3.72270         4.90557
   H       -9.27116        -5.65794         2.83310
   H      -13.20659       -10.80648         5.52955
   H      -14.93572        -8.87693         5.67899
   H      -14.94766        -9.26059         3.96119
   H      -14.63184        -6.48078         5.19588
   H      -16.02773        -7.08249         4.30023
   H      -14.48944        -6.81515         3.46673
   H       -8.83415       -11.42974         5.45431
   H       -6.33427        -9.81645         4.68642
   H       -6.37950       -11.53707         5.32369
*
