# ORCA input file
# SCF done       -193.120513216867          0.000669044168
! CAM-B3LYP def2-SVP def2/J RIJCOSX Grid4 TightSCF
%maxcore 5000
%tddft
    Mode sTDDFT
    Ethresh 5.0
    maxcore 5000
end

%pal
  nprocs 6
  end
* xyz 0 1
   C      -11.24075         4.03578         3.31204
   C      -10.88841         3.45796         4.50298
   C      -11.64466         3.56220         5.68887
   N      -12.22002         3.61694         6.68020
   C       -9.71943         2.69173         4.69059
   N       -8.77613         2.06590         4.87961
   C      -12.43294         4.84480         3.07122
   C      -12.43041         5.27847         1.71894
   C      -13.42691         6.06434         1.18904
   C      -14.47705         6.44066         2.03213
   C      -14.47460         6.00017         3.37802
   C      -13.46611         5.20608         3.91337
   S      -15.86801         6.57270         4.23963
   C      -16.42849         7.38755         2.80303
   C      -15.61323         7.23881         1.73071
  Br      -18.03371         8.35564         2.85392
   C      -11.23137         4.75542         1.06038
   O      -10.87638         4.94236        -0.10489
   C      -10.51189         3.97545         2.06367
   C       -9.34542         3.31447         1.76215
   N       -8.82754         3.38151         0.53020
   C       -7.73063         2.72282         0.07417
   S       -6.90698         1.55928         1.06928
   C       -5.86329         1.19026        -0.26275
   N       -4.86474         0.22004        -0.06482
   O       -4.13988        -0.03819        -1.00401
   O       -4.81090        -0.28665         1.03929
   C       -6.13874         1.90882        -1.39162
   C       -7.20225         2.82115        -1.21826
   C       -7.61321         3.69272        -2.28550
   C       -8.23318         4.89026        -2.19630
   C       -8.51741         5.67593        -3.35384
   O       -8.15953         5.18496        -4.57822
   C       -8.40198         6.09285        -5.50327
   C       -8.93053         7.22627        -4.93148
   N       -9.30208         8.40740        -5.60044
   O       -9.24603         8.41461        -6.81061
   O       -9.65616         9.35258        -4.90771
   C       -9.02905         6.96709        -3.51958
   N       -9.52020         7.87983        -2.64202
   C       -9.99394         7.68208        -1.39218
   C      -10.35467         8.71256        -0.57201
   C      -10.92649         8.60996         0.72161
   C      -11.18211         9.80841         1.31097
   C      -10.80999        10.92770         0.52902
   S      -10.14599        10.41268        -1.00040
   C      -10.89446        12.26447         0.87412
   C      -11.41331        12.81776         2.06445
   C      -11.31660        14.17607         2.12432
   C      -10.71552        14.76352         0.98749
   S      -10.28701        13.53093        -0.17186
   C      -10.44246        16.10524         0.81128
   C       -9.84603        16.63575        -0.32803
   C       -9.43296        17.93479        -0.52903
   C       -9.22480        19.02075         0.38833
   C       -8.91056        18.92819         1.72555
   C       -8.68402        20.04076         2.55811
   N       -8.51281        20.90938         3.29019
   C       -8.66171        17.71811         2.40182
   N       -8.39764        16.76845         2.99191
   C       -9.17162        20.25317        -0.39819
   C       -9.14074        19.91033        -1.77301
   C       -9.24093        18.44023        -1.90626
   O       -9.21414        17.78755        -2.92723
   C       -9.04770        20.85321        -2.76621
   C       -8.99448        22.19937        -2.38598
   C       -9.04135        22.53105        -1.01225
   C       -9.12636        21.57584        -0.00538
   S       -8.97560        24.25017        -0.76659
   C       -8.88100        24.49595        -2.49029
   C       -8.90051        23.35204        -3.21390
  Br       -8.76987        26.24065        -3.17101
   H      -13.39965         6.37936         0.15739
   H      -13.51043         4.89602         4.94386
   H      -15.80599         7.67223         0.76648
   H       -8.80840         2.72620         2.49438
   H       -9.39124         3.92866        -0.14066
   H       -5.57900         1.79479        -2.30241
   H       -7.32677         3.34893        -3.26993
   H       -8.46698         5.34766        -1.24958
   H       -8.17175         5.87124        -6.52711
   H       -9.62506         8.81583        -3.04618
   H      -10.13874         6.66385        -1.06246
   H      -11.13036         7.65425         1.16921
   H      -11.61417         9.92041         2.28872
   H      -11.84020        12.20774         2.83995
   H      -11.64390        14.77540         2.95476
   H      -10.73263        16.76318         1.61788
   H       -9.75665        15.98759        -1.19511
   H       -9.01590        20.56401        -3.80493
   H       -9.16280        21.87737         1.02832
   H       -8.85130        23.31954        -4.28699
*
