# ORCA input file
# SCF done       -187.629894123851          0.000797469109
! CAM-B3LYP def2-SVP def2/J RIJCOSX Grid4 TightSCF
%maxcore 5000
%tddft
    Mode sTDDFT
    Ethresh 5.0
    maxcore 5000
end

%pal
  nprocs 6
  end
* xyz 0 1
   C        2.06616        10.90364        -2.20614
   C        1.43312        11.35385        -1.07459
   C        1.64601        12.62640        -0.50525
   N        1.77064        13.64706         0.00650
   C        0.49703        10.63389        -0.30334
   N       -0.26997        10.13310         0.38970
   C        3.04946        11.66286        -2.97537
   C        3.50826        10.85701        -4.04606
   C        4.43855        11.28949        -4.95852
   C        4.94245        12.58619        -4.80921
   C        4.47984        13.38522        -3.73766
   C        3.53889        12.94501        -2.81381
   S        5.22942        14.95289        -3.73987
   C        6.14145        14.51872        -5.16108
   C        5.89907        13.26535        -5.61245
  Br        7.32577        15.76168        -5.91632
   C        2.82598         9.55185        -3.99103
   O        3.00227         8.61791        -4.75556
   C        1.90908         9.61616        -2.85059
   C        1.01511         8.63652        -2.48883
   C        0.76551         7.38893        -3.06380
   S        1.61821         6.64527        -4.45161
   C        0.56210         5.31161        -4.29895
   C       -0.34828         5.51633        -3.22923
   N       -0.21302         6.63933        -2.57536
   C       -1.30557         4.37407        -3.10814
   C       -0.86390         3.51203        -4.25254
   C        0.24085         4.08716        -4.90563
   S        0.77663         3.13175        -6.22901
   C       -0.51339         1.97446        -5.94002
   C       -1.28606         2.33413        -4.83313
   C       -0.69481         0.89496        -6.82516
   C       -1.80068         0.08834        -6.81238
   C       -2.08434        -0.91297        -7.74604
   C       -3.30510        -1.54957        -7.79284
   C       -3.76863        -2.48096        -8.75254
   C       -5.07999        -2.82565        -8.61031
   C       -5.72323        -2.19677        -7.52001
   S       -4.59132        -1.18411        -6.65484
   C       -7.04805        -2.22672        -7.13757
   C       -8.14292        -2.82907        -7.80189
   C       -9.34231        -2.53590        -7.23362
   C       -9.25294        -1.70201        -6.08345
   S       -7.58434        -1.34696        -5.70865
   C      -10.27154        -1.16219        -5.35324
   C       -9.97870        -0.33569        -4.22833
   N       -8.68336        -0.25921        -3.87768
   C       -8.36646         0.44140        -2.81070
   C       -9.32732         1.10193        -2.06333
   C      -10.64803         1.03709        -2.53984
   N      -10.96323         0.31434        -3.60880
   C      -11.69626         1.80737        -1.90210
   C      -12.87466         2.06479        -2.50400
   C      -13.84158         2.93702        -1.93469
   C      -15.00827         3.35495        -2.48780
   C      -15.70005         2.95829        -3.70016
   C      -15.75987         1.69794        -4.22829
   C      -16.48987         1.37306        -5.39125
   N      -17.05326         1.06588        -6.34277
   C      -15.20414         0.55470        -3.61088
   N      -14.83651        -0.41592        -3.12286
   C      -16.49686         4.10288        -4.12873
   C      -16.50756         5.06687        -3.08767
   C      -15.65738         4.59709        -1.97650
   O      -15.46746         5.12636        -0.90745
   C      -17.19852         6.25054        -3.18612
   C      -17.89996         6.50036        -4.36997
   C      -17.87446         5.53617        -5.40715
   C      -17.18508         4.33424        -5.30467
   S      -18.79384         6.05684        -6.78559
   C      -19.19658         7.54081        -5.96246
   C      -18.67093         7.64290        -4.71856
  Br      -20.26836         8.81479        -6.82461
   H        4.76622        10.64958        -5.76275
   H        3.21882        13.59521        -2.01722
   H        6.37329        12.83590        -6.47601
   H        0.36272         8.82928        -1.64615
   H       -2.34165         4.70204        -3.20641
   H       -1.20821         3.86728        -2.14619
   H       -2.11459         1.74615        -4.48439
   H        0.05722         0.75214        -7.58928
   H       -2.56155         0.26675        -6.06441
   H       -1.34960        -1.16036        -8.50007
   H       -3.12439        -2.84953        -9.53155
   H       -5.60204        -3.50609        -9.25920
   H       -8.02235        -3.42968        -8.68665
   H      -10.29496        -2.87467        -7.60111
   H      -11.30375        -1.33309        -5.61010
   H       -7.31526         0.46992        -2.55356
   H       -9.07437         1.66665        -1.18148
   H      -11.47109         2.21960        -0.92745
   H      -13.04067         1.64256        -3.48378
   H      -13.57279         3.42140        -1.00128
   H      -17.19440         6.96383        -2.37697
   H      -17.18598         3.63306        -6.12288
   H      -18.81723         8.48938        -4.07279
*
