# ORCA input file
# SCF done       -200.057798085856          0.000607533984
! CAM-B3LYP def2-SVP def2/J RIJCOSX Grid4 TightSCF
%maxcore 5000
%tddft
    Mode sTDDFT
    Ethresh 5.0
    maxcore 5000
end

%pal
  nprocs 6
  end
* xyz 0 1
   C       -6.68608         9.27047         2.48706
   C       -5.35095         9.18153         2.19308
   C       -4.37648        10.07205         2.69045
   N       -3.54546        10.77095         3.06252
   C       -4.75931         8.16025         1.41756
   N       -4.19833         7.34401         0.83751
   C       -7.29459        10.22423         3.40503
   C       -8.64142         9.84318         3.62131
   C       -9.48472        10.54411         4.44897
   C       -8.97706        11.68159         5.08525
   C       -7.63169        12.05902         4.85652
   C       -6.77646        11.34516         4.02621
   S       -7.21479        13.50071         5.73122
   C       -8.82997        13.57633         6.38420
   C       -9.64127        12.57390         5.97058
  Br       -9.29243        14.97209         7.54786
   C       -8.94854         8.63486         2.82925
   O       -9.99405         8.02219         2.84029
   C       -7.73041         8.37280         2.02344
   C       -7.63385         7.59657         0.90170
   C       -8.55949         6.70109         0.33033
   C       -9.68256         6.06155         0.79047
   C      -10.23617         5.22501        -0.22993
   C       -9.48109         5.30623        -1.36838
   C       -8.33547         6.23996        -1.08663
   O       -7.43986         6.55785        -1.82032
   C       -9.70324         4.66620        -2.60528
   O       -8.87991         4.88621        -3.66244
   C      -10.69250         3.78047        -3.00739
   C      -11.88883         3.05613        -2.56871
   O      -12.45521         3.03293        -1.50733
   N      -12.27508         2.34708        -3.70467
   C      -11.46774         2.53318        -4.82205
   O      -11.63832         2.01172        -5.89658
   C      -10.43917         3.46607        -4.36061
   C       -9.30461         4.17582        -4.73321
   C       -8.60292         4.27932        -5.96141
   C       -9.00438         3.61436        -7.06947
   C       -8.33074         3.66341        -8.33721
   C       -6.98726         3.93381        -8.39529
   S       -6.30194         3.85656        -9.95584
   C       -7.86216         3.46563       -10.61650
   C       -8.87989         3.39902        -9.65513
   C      -10.20380         3.17062       -10.10649
   C      -11.33975         3.29572        -9.12348
   C      -11.50335         4.74369        -8.65441
   C      -10.45519         2.91509       -11.45465
   C      -11.85819         2.63230       -11.91277
   C      -12.26093         1.19720       -11.55693
   C       -9.41014         2.91539       -12.41284
   C       -9.39035         2.75718       -13.86109
   C       -8.14526         3.06606       -14.36526
   S       -6.94247         3.42637       -13.21794
   C       -8.12392         3.25462       -11.95759
   C      -10.29917         2.30196       -14.88425
   C      -11.33352         1.42643       -14.91257
   C      -11.83248         0.98503       -16.16638
   C      -12.84637         0.10842       -16.41185
   C      -13.89037        -0.41138       -15.55917
   C      -14.50589         0.28261       -14.54986
   C      -15.54241        -0.23690       -13.75081
   N      -16.36391        -0.63381       -13.05394
   C      -14.23694         1.64596       -14.31276
   N      -14.08920         2.77252       -14.15022
   C      -14.35087        -1.66458       -16.14326
   C      -13.79061        -1.78603       -17.44071
   C      -12.88956        -0.64066       -17.69474
   O      -12.27493        -0.39170       -18.70637
   C      -14.08362        -2.84077       -18.27016
   C      -14.95918        -3.82282       -17.79374
   C      -15.50299        -3.69631       -16.49281
   C      -15.21535        -2.62510       -15.65566
   S      -16.55344        -5.02517       -16.10722
   C      -16.25691        -5.72103       -17.67857
   C      -15.41304        -4.99833       -18.45257
  Br      -17.08737        -7.33614       -18.14641
   H      -10.50518        10.22760         4.59766
   H       -5.76140        11.67432         3.87886
   H      -10.66644        12.46758         6.27487
   H       -6.73834         7.71071         0.29753
   H      -10.10282         6.15805         1.77430
   H      -11.12049         4.62414        -0.11000
   H      -13.08430         1.74244        -3.71747
   H       -7.75619         4.94920        -5.96090
   H       -9.87589         2.98593        -6.98635
   H       -6.33971         4.12493        -7.56215
   H      -11.18118         2.63712        -8.27158
   H      -12.28008         2.98870        -9.56820
   H      -10.59772         5.12264        -8.18831
   H      -12.31240         4.80539        -7.93076
   H      -11.74577         5.38395        -9.50018
   H      -12.56046         3.33031       -11.45758
   H      -11.92986         2.79473       -12.98402
   H      -13.26184         0.98268       -11.92535
   H      -12.25890         1.04532       -10.48078
   H      -11.56065         0.48047       -11.98353
   H       -7.86467         3.03940       -15.40139
   H       -9.99034         2.65662       -15.86339
   H      -11.73389         0.97036       -14.02389
   H      -11.26259         1.27173       -17.04483
   H      -13.65376        -2.90688       -19.25727
   H      -15.64882        -2.56682       -14.67053
   H      -15.12105        -5.28053       -19.44758
*
