# ORCA input file
# SCF done       -198.930234680571          0.000352039014
! CAM-B3LYP def2-SVP def2/J RIJCOSX Grid4 TightSCF
%maxcore 5000
%tddft
    Mode sTDDFT
    Ethresh 5.0
    maxcore 5000
end

%pal
  nprocs 6
  end
* xyz 0 1
   C       -9.55966         4.76504       -15.31118
   C      -10.16290         4.07411       -16.32625
   C      -10.30627         4.56893       -17.64108
   N      -10.46298         4.91652       -18.72335
   C      -10.75218         2.79655       -16.20866
   N      -11.24473         1.76017       -16.19783
   C       -8.94932         6.08313       -15.42267
   C       -8.58376         6.53861       -14.12898
   C       -8.00155         7.76571       -13.91131
   C       -7.73735         8.56245       -15.02890
   C       -8.06338         8.08139       -16.32081
   C       -8.67965         6.85596       -16.53724
   S       -7.59929         9.20750       -17.55716
   C       -6.99751        10.30183       -16.33919
   C       -7.13807         9.84954       -15.07088
  Br       -6.24263        11.93482       -16.86877
   C       -8.92368         5.50535       -13.14109
   O       -8.94960         5.62894       -11.93537
   C       -9.38619         4.32449       -13.93399
   C       -9.60320         3.07859       -13.43440
   C       -9.08941         2.63534       -12.18371
   O       -8.01402         3.26289       -11.64490
   C       -9.42444         1.57904       -11.35529
   C      -10.36832         0.46875       -11.14813
   O      -11.29418         0.08170       -11.80573
   N       -9.94992        -0.09197        -9.94024
   C       -8.85973         0.52893        -9.33828
   O       -8.36137         0.20410        -8.28978
   C       -8.52322         1.60968       -10.26451
   C       -7.65818         2.66895       -10.48865
   C       -6.56606         3.21913        -9.77115
   C       -6.13852         2.78293        -8.56604
   C       -5.10679         3.50495        -7.89063
   C       -4.68199         3.36090        -6.62619
   C       -5.16029         2.32286        -5.66689
   C       -3.68515         4.33837        -6.02526
   N       -2.95587         5.14253        -6.96924
   C       -3.55759         6.07327        -7.73708
   C       -2.96342         6.67835        -8.80148
   C       -3.59336         7.59769        -9.67466
   C       -4.99648         7.79309        -9.79553
   C       -5.53472         8.81678       -10.62966
   N       -6.87285         8.98151       -10.70778
   C       -7.66411         8.18393       -10.04192
   C       -7.12782         7.11775        -9.25857
   N       -5.83600         6.95761        -9.14421
   C       -8.02223         6.13337        -8.58670
   C       -9.13117         8.39053       -10.17927
   C       -4.72836         9.66766       -11.43134
   C       -3.34479         9.39069       -11.41382
   C       -2.79726         8.37597       -10.54919
   N       -1.46806         8.30713       -10.64089
   S       -0.95772         9.39919       -11.69701
   N       -2.38589        10.02962       -12.08731
   C       -5.32249        10.77465       -12.08327
   C       -4.85662        11.53217       -13.12210
   C       -5.36685        12.91287       -13.31982
   O       -6.33173        13.41611       -12.78668
   C       -4.42750        13.53792       -14.27365
   C       -4.38225        14.82606       -14.71835
   C       -3.37804        15.20172       -15.63969
   C       -2.43455        14.22913       -16.08028
   C       -1.43312        14.61394       -16.99232
   C       -1.39015        15.90576       -17.43729
   C       -2.31066        16.87542       -17.01972
   C       -3.28843        16.51884       -16.13264
   F       -0.43155        16.27509       -18.30927
   C       -2.51320        12.89672       -15.61104
   C       -3.49774        12.55686       -14.72556
   C       -3.85008        11.27883       -14.11768
   C       -3.48704        10.03958       -14.58749
   C       -2.53526         9.82739       -15.60052
   N       -1.75208         9.59383       -16.40786
   C       -4.10540         8.85242       -14.15818
   N       -4.62818         7.86859       -13.87397
   H       -7.73376         8.10084       -12.92150
   H       -8.91855         6.53725       -17.53809
   H       -6.83598        10.39271       -14.19447
   H      -10.13966         2.33112       -14.00225
   H      -10.41508        -0.88954        -9.53021
   H       -6.10718         4.08142       -10.23588
   H       -6.61082         1.92841        -8.10454
   H       -4.68784         4.30463        -8.48799
   H       -5.95323         1.71623        -6.09031
   H       -5.52665         2.79283        -4.75465
   H       -4.33571         1.66686        -5.38706
   H       -2.96647         3.79300        -5.40800
   H       -4.24535         5.00900        -5.36007
   H       -2.08559         4.76362        -7.31561
   H       -4.55703         6.35792        -7.44250
   H       -1.92231         6.47612        -9.01655
   H       -8.70645         6.63864        -7.90700
   H       -7.43194         5.40644        -8.03585
   H       -8.61519         5.62054        -9.34272
   H       -9.32221         9.28080       -10.77194
   H       -9.59969         8.49440        -9.20244
   H       -9.56702         7.52321       -10.67423
   H       -6.25141        11.11665       -11.63629
   H       -5.10501        15.55159       -14.37658
   H       -0.71021        13.89236       -17.33979
   H       -2.22875        17.87899       -17.40604
   H       -4.00978        17.24832       -15.79621
   H       -1.78833        12.17789       -15.95928
*
