# ORCA input file
# SCF done       -160.635876572984          0.000926178290
! CAM-B3LYP def2-SVP def2/J RIJCOSX Grid4 TightSCF
%maxcore 5000
%tddft
    Mode sTDDFT
    Ethresh 5.0
    maxcore 5000
end

%pal
  nprocs 6
  end
* xyz 0 1
   C        4.16996         1.12950        -1.85055
   C        4.34647        -0.02227        -2.57816
   N        3.91713        -1.23202        -2.21212
   C        3.26710        -1.40523        -1.07695
   C        3.01572        -0.29623        -0.22237
   C        3.48517         0.99975        -0.63273
   N        3.17998         1.94311         0.26183
   S        2.38950         1.26154         1.48110
   N        2.38803        -0.25573         0.95009
   C        2.83703        -2.73164        -0.76296
   C        2.14048        -3.18587         0.33710
   C        1.90424        -4.55954         0.26212
   C        2.43352        -5.13782        -0.90993
   S        3.21588        -4.00004        -1.91154
   C        2.13584        -6.52269        -0.89525
   C        1.42082        -6.82196         0.27545
   C        1.25663        -5.59403         1.04473
   C        0.62592        -5.45702         2.24720
   C        0.03348        -6.55146         2.91065
   N       -0.44862        -7.43986         3.45269
   C        0.52305        -4.21591         2.91023
   N        0.43008        -3.21459         3.46118
   C        1.06977        -8.16646         0.37290
   C        1.51063        -8.90189        -0.71475
   S        2.38142        -7.90086        -1.87458
   C        1.32932       -10.29270        -0.95906
   C        1.81504       -10.91371        -2.08592
   C        1.65688       -12.26292        -2.39169
   C        0.82439       -13.12490        -1.53894
   C        0.27202       -12.73230        -0.37086
   S        0.43700       -11.15724         0.28799
   C        0.75855       -14.37600        -2.21111
   C        1.49861       -14.31133        -3.39149
   C        1.47164       -15.52991        -4.10488
   C        0.72386       -16.46518        -3.46319
   S        0.03378       -15.91530        -1.97254
   C        2.09628       -13.00581        -3.50696
   C        2.96882       -12.66243        -4.56606
   C        3.85222       -11.62824        -4.60043
   C        4.70862       -11.34554        -5.69082
   C        4.78774       -11.95314        -6.93727
   C        5.77846       -11.39085        -7.73477
   C        6.46812       -10.34024        -7.10407
   S        5.88604       -10.04734        -5.52455
   C        7.45011        -9.84652        -7.99623
   C        7.38189       -10.58227        -9.19419
   C        6.33151       -11.57296        -9.07262
   C        5.93558       -12.48692       -10.00586
   C        6.53067       -12.57474       -11.28181
   N        7.00222       -12.65848       -12.32374
   C        4.89781       -13.40766        -9.75470
   N        4.05687       -14.15989        -9.54803
   C        8.32383       -10.16775       -10.13889
   C        9.10363        -9.13000        -9.67553
   S        8.66695        -8.65203        -8.03635
   C       10.16173        -8.45645       -10.36696
   C       10.88087        -7.40614        -9.80956
   N       11.87190        -6.73817       -10.40038
   C       12.24922        -7.04943       -11.61120
   C       11.62225        -8.09345       -12.31593
   C       10.55248        -8.81801       -11.68343
   N       10.06546        -9.77220       -12.47553
   S       10.87063        -9.75402       -13.86568
   N       11.87485        -8.54605       -13.54598
   H        4.53170         2.08710        -2.18385
   H        4.86472        -0.00384        -3.52720
   H        1.83284        -2.53261         1.13333
   H        0.51961        -8.60219         1.18737
   H        2.32614       -10.27830        -2.79535
   H       -0.31461       -13.39563         0.24486
   H        1.97012       -15.71079        -5.03980
   H        0.52695       -17.47315        -3.77201
   H        2.95022       -13.34408        -5.40608
   H        3.97195       -10.98713        -3.74000
   H        4.14857       -12.76171        -7.23903
   H        8.45416       -10.58608       -11.12029
   H       10.64709        -7.06881        -8.80764
   H       13.05486        -6.47943       -12.04899
*
