# ORCA input file
# SCF done       -208.245734954484          0.000430333238
! CAM-B3LYP def2-SVP def2/J RIJCOSX Grid4 TightSCF
%maxcore 5000
%tddft
    Mode sTDDFT
    Ethresh 5.0
    maxcore 5000
end

%pal
  nprocs 6
  end
* xyz 0 1
   C        1.26841         3.93526         1.46727
   C        1.79870         4.77503         2.41466
   C        3.14546         4.74190         2.83563
   N        4.22351         4.77378         3.22926
   C        1.11883         5.78786         3.12321
   N        0.65647         6.63189         3.75152
   C        2.01704         2.89230         0.77414
   C        1.14299         2.22073        -0.11266
   C        1.54533         1.17810        -0.91117
   C        2.88183         0.77482        -0.82966
   C        3.75157         1.45179         0.05852
   C        3.34246         2.50713         0.86412
   S        5.35907         0.79423         0.00334
   C        4.84734        -0.36574        -1.19396
   C        3.54104        -0.26708        -1.53729
  Br        6.08621        -1.59658        -1.87707
   C       -0.20395         2.81401        -0.02287
   O       -1.16967         2.46479        -0.66896
   C       -0.10334         3.89480         0.98425
   C       -1.08709         4.74224         1.42312
   C       -2.45729         4.83080         1.12135
   C       -3.30568         4.10230         0.29387
   C       -4.61713         4.54695         0.36120
   C       -4.79037         5.63930         1.25059
   S       -3.33512         6.10825         1.98994
   C       -6.15148         5.99493         1.26533
   C       -6.85488         5.13869         0.39436
   C       -5.90798         4.20504        -0.20631
   C       -6.19991         3.21932        -1.10199
   C       -5.23237         2.34219        -1.63957
   N       -4.48048         1.60870        -2.09760
   C       -7.51731         3.00222        -1.55966
   N       -8.58985         2.82718        -1.92588
   C       -8.21616         5.39454         0.36657
   C       -8.58080         6.44376         1.21173
   S       -7.18374         7.12061         2.03829
   C       -9.89829         6.88810         1.43171
   C      -10.40398         7.92284         2.24675
   C      -11.82926         7.97887         2.23746
   C      -12.49607         8.95028         3.00341
   C      -11.76823         9.83782         3.74867
   C      -10.36511         9.79065         3.75211
   C       -9.68690         8.85470         3.01848
   C      -12.41889         6.99901         1.41074
   S      -11.19600         6.03722         0.64756
   C      -13.78854         6.75820         1.22105
   C      -14.30163         5.82299         0.36989
   C      -15.67557         5.53868         0.23068
   C      -16.74990         6.03584         0.96419
   C      -17.95826         5.48926         0.55898
   C      -17.82505         4.57075        -0.50425
   S      -16.19716         4.38129        -0.98684
   C      -19.10569         4.07744        -0.83685
   C      -20.05214         4.67220         0.02909
   C      -19.36503         5.58203         0.92307
   C      -19.92590         6.37249         1.88376
   C      -19.15079         7.23132         2.68950
   N      -18.50826         7.91941         3.34444
   C      -21.31632         6.36506         2.12216
   N      -22.44737         6.34133         2.30938
   C      -21.35282         4.26516        -0.22714
   C      -21.42753         3.37354        -1.28902
   S      -19.83145         3.01287        -1.94847
   C      -22.55419         2.72345        -1.82976
   C      -23.87758         3.00949        -1.66400
   C      -24.59735         4.15496        -1.15127
   C      -24.20953         5.46949        -1.21143
   C      -25.02745         6.54874        -0.81634
   N      -25.65391         7.46094        -0.51308
   C      -22.99140         5.90439        -1.76699
   N      -22.01976         6.30250        -2.23205
   C      -25.94312         3.70150        -0.81133
   C      -26.12815         2.39470        -1.32913
   C      -24.87354         1.94104        -1.95889
   O      -24.66682         0.90573        -2.54883
   C      -27.31427         1.71332        -1.20279
   C      -28.35981         2.34524        -0.52104
   C      -28.15711         3.64196         0.01012
   C      -26.96089         4.33627        -0.12659
   S      -29.57289         4.22565         0.82906
   C      -30.40961         2.74417         0.44721
   C      -29.66765         1.85516        -0.25509
  Br      -32.18128         2.50949         1.01453
   H        0.84904         0.68998        -1.57489
   H        4.04699         2.98712         1.52189
   H        3.06010        -0.90178        -2.25895
   H       -0.77615         5.48286         2.15026
   H       -2.95112         3.28927        -0.31500
   H       -8.93602         4.85741        -0.22437
   H      -13.57357         8.99550         2.99768
   H      -12.27241        10.58743         4.33879
   H       -9.81565        10.50754         4.34261
   H       -8.60964         8.84022         3.02852
   H      -14.46339         7.36455         1.80707
   H      -13.62222         5.24825        -0.24622
   H      -16.64066         6.74869         1.76004
   H      -22.20826         4.55757         0.35371
   H      -22.35660         1.82327        -2.40438
   H      -27.43257         0.72356        -1.61492
   H      -26.84710         5.31827         0.30197
   H      -30.02564         0.89293        -0.57274
*
