# ORCA input file
# SCF done       -239.257594937801          0.000779517274
! CAM-B3LYP def2-SVP def2/J RIJCOSX Grid4 TightSCF
%maxcore 5000
%tddft
    Mode sTDDFT
    Ethresh 5.0
    maxcore 5000
end

%pal
  nprocs 6
  end
* xyz 0 1
   C       -0.75266         1.37399         1.00537
   C       -0.09864         1.77113         2.14332
   C        1.20797         1.36364         2.48516
   N        2.26858         1.07339         2.81457
   C       -0.64060         2.59852         3.14951
   N       -1.01802         3.24617         4.01967
   C       -0.23980         0.42852         0.02245
   C       -1.26697         0.14506        -0.90967
   C       -1.09715        -0.72319        -1.96055
   C        0.15001        -1.34072        -2.09985
   C        1.17383        -1.04686        -1.16709
   C        1.00023        -0.17016        -0.10339
   S        2.63624        -1.91157        -1.53009
   C        1.86324        -2.64780        -2.90907
   C        0.57636        -2.26677        -3.09062
  Br        2.82908        -3.84695        -3.97915
   C       -2.47628         0.91827        -0.56701
   O       -3.52265         0.90897        -1.17882
   C       -2.10247         1.73846         0.61089
   C       -2.79897         2.79034         1.14035
   C       -4.12969         3.19594         0.92031
   C       -5.22761         2.53855         0.37881
   C       -6.37103         3.32496         0.40029
   C       -6.15428         4.60635         0.95520
   S       -4.55561         4.82018         1.48375
   C       -7.36502         5.33783         0.88368
   C       -8.34787         4.52351         0.29791
   C       -7.76371         3.22639        -0.00774
   C       -8.40164         2.14513        -0.53976
   C       -7.76377         0.90458        -0.75863
   N       -7.27779        -0.11947        -0.92736
   C       -9.76953         2.19017        -0.88379
   N      -10.88189         2.23373        -1.15934
   C       -9.57710         5.17140         0.16615
   C       -9.54047         6.47011         0.63585
   S       -7.95672         6.89287         1.26358
   C      -10.59933         7.44652         0.62757
   C      -10.33100         8.78649         0.93561
   C      -11.30453         9.76324         0.88093
   C      -12.59694         9.41373         0.50440
   C      -12.87733         8.04760         0.25903
   C      -11.91267         7.06993         0.30283
   N      -14.22262         7.89590         0.00103
   C      -14.88101         6.65328        -0.29689
   C      -14.88030         9.09491         0.10141
   O      -16.07187         9.21652        -0.08581
   C      -13.83870        10.14087         0.38481
   C      -14.07360        11.48888         0.38303
   C      -13.01443        12.53250         0.15990
   O      -11.81764        12.40512         0.01505
   N      -13.65887        13.73797         0.05664
   C      -12.98008        14.98144        -0.18729
   C      -15.01495        13.59013         0.25033
   C      -15.31618        12.22118         0.45193
   C      -16.62964        11.87412         0.75111
   C      -17.59706        12.85846         0.78441
   C      -17.30229        14.20423         0.53013
   C      -15.97220        14.57507         0.27417
   C      -18.34440        15.19825         0.53263
   C      -18.25646        16.51881         0.13513
   C      -19.47052        17.19393         0.26237
   C      -20.49654        16.37879         0.76683
   S      -19.96248        14.78741         1.07477
   C      -21.67820        17.15447         0.86710
   C      -21.40088        18.45947         0.41218
   C      -20.00290        18.52586         0.01979
   C      -19.32827        19.60496        -0.47041
   C      -17.95836        19.53791        -0.80107
   N      -16.84455        19.47668        -1.06695
   C      -19.95311        20.85197        -0.68499
   N      -20.45715        21.86420        -0.87313
   C      -22.50997        19.29579         0.46639
   C      -23.62282        18.66212         0.99870
   S      -23.28944        16.97119         1.37772
   C      -24.90421        19.23940         1.14863
   C      -25.95521        18.83595         1.91271
   C      -26.06173        17.90924         3.01963
   C      -25.09851        17.66722         3.96493
   C      -25.29043        16.83284         5.08404
   N      -25.39582        16.14834         5.99921
   C      -23.84384        18.31020         3.96956
   N      -22.83144        18.84920         4.02453
   C      -27.46502        17.52885         3.13175
   C      -28.23324        18.38538         2.30231
   C      -27.32981        19.29707         1.57133
   O      -27.62687        20.19146         0.81463
   C      -29.60319        18.30840         2.23495
   C      -30.24101        17.33311         3.00917
   C      -29.46218        16.47168         3.81942
   C      -28.07743        16.55638         3.89789
   S      -30.45321        15.33342         4.67879
   C      -31.88150        16.02287         3.95382
   C      -31.63105        17.05186         3.10973
  Br      -33.56622        15.31761         4.37824
   H       -1.90187        -0.92010        -2.65135
   H        1.81227         0.02456         0.57692
   H       -0.04784        -2.62227        -3.88994
   H       -2.25456         3.44159         1.81478
   H       -5.17222         1.53961        -0.01207
   H      -10.44890         4.72192        -0.27099
   H       -9.32454         9.06699         1.20952
   H      -11.05145        10.78346         1.10708
   H      -12.16172         6.04083         0.10468
   H      -14.45772         6.20273        -1.19638
   H      -15.93464         6.87443        -0.46367
   H      -14.78401         5.95490         0.53704
   H      -11.92125        14.75618        -0.30894
   H      -13.11193        15.66478         0.65413
   H      -13.35799        15.45134        -1.09696
   H      -16.90107        10.84999         0.93516
   H      -18.61813        12.58118         1.00185
   H      -15.70385        15.60577         0.11418
   H      -17.35724        16.96859        -0.24187
   H      -22.52221        20.32910         0.16971
   H      -25.10531        20.08962         0.50283
   H      -30.16649        18.97957         1.60594
   H      -27.52210        15.87817         4.52469
   H      -32.39380        17.59132         2.57864
*
