# ORCA input file
# SCF done       -222.077378095009          0.000964339364
! CAM-B3LYP def2-SVP def2/J RIJCOSX Grid4 TightSCF
%maxcore 5000
%tddft
    Mode sTDDFT
    Ethresh 5.0
    maxcore 5000
end

%pal
  nprocs 6
  end
* xyz 0 1
   C       -2.39918         3.44708         3.05771
   C       -2.48097         4.46898         2.15398
   F       -2.37121         5.73962         2.56277
   C       -2.68180         4.20187         0.78460
   F       -2.75801         5.22375        -0.07827
   C       -2.79981         2.91558         0.33803
   C       -2.72283         1.84102         1.24512
   C       -2.51631         2.10928         2.62964
   C       -2.43105         1.04661         3.55813
   C       -2.55311        -0.24416         3.11493
   C       -2.77256        -0.50082         1.73401
   C       -2.85322         0.50286         0.81256
   C       -2.90134        -1.95405         1.51246
   O       -3.10540        -2.49350         0.44637
   C       -2.79872        -2.57147         2.85702
   C       -2.50516        -1.52208         3.81768
   C       -2.15300        -1.68996         5.13176
   C       -1.99514        -2.93148         5.78387
   N       -1.82540        -3.90178         6.37419
   C       -1.85308        -0.62508         6.00766
   N       -1.60459         0.19739         6.76868
   C       -3.09724        -3.86190         3.20378
   C       -3.31546        -4.99438         2.39679
   C       -3.04871        -5.25480         1.05723
   C       -3.39411        -6.54911         0.69711
   C       -3.93925        -7.29709         1.76755
   S       -3.99461        -6.41130         3.21490
   C       -4.27518        -8.58348         1.29073
   C       -3.94292        -8.66103        -0.07504
   C       -3.36491        -7.38941        -0.48809
   C       -2.87341        -7.07728        -1.72071
   C       -2.90663        -8.00145        -2.78711
   N       -2.93883        -8.75611        -3.64978
   C       -2.27330        -5.83411        -2.01914
   N       -1.76197        -4.84405        -2.28638
   C       -4.22962        -9.90402        -0.63216
   C       -4.77559       -10.77378         0.29853
   S       -4.94184       -10.04009         1.88615
   C       -5.15705       -12.12220         0.10430
   C       -5.65378       -12.99348         1.05889
   C       -5.87939       -14.26373         0.53906
   C       -5.55800       -14.36383        -0.83269
   S       -4.98237       -12.88515        -1.47183
   C       -5.78197       -15.69051        -1.25424
   C       -6.23819       -16.43894        -0.14467
   C       -6.32950       -15.55847         1.01139
   C       -6.74775       -15.88975         2.26667
   C       -7.16183       -17.19900         2.59387
   N       -7.49968       -18.26371         2.85078
   C       -6.80097       -14.93901         3.30818
   N       -6.84782       -14.15804         4.14601
   C       -6.44824       -17.77459        -0.42941
   C       -6.16179       -18.08642        -1.76037
   S       -5.64806       -16.65262        -2.65996
   C       -6.20594       -19.32312        -2.41511
   C       -6.35724       -20.56219        -1.83111
   C       -6.39868       -21.80205        -2.51422
   C       -6.47995       -22.89325        -1.69835
   C       -6.49896       -22.57175        -0.32533
   S       -6.44122       -20.84560        -0.10364
   C       -6.52636       -23.41294         0.77823
   C       -6.56791       -24.82016         0.82281
   C       -6.54083       -25.32569         2.09246
   C       -6.47095       -24.34113         3.10232
   S       -6.47076       -22.74836         2.39314
   C       -6.39972       -24.55031         4.47051
   C       -6.28630       -23.50566         5.37669
   C       -6.18747       -23.54036         6.75360
   C       -5.66740       -22.33889         7.44475
   O       -5.47012       -21.24620         6.96340
   C       -5.39317       -22.77297         8.83672
   C       -5.78794       -24.11446         8.98248
   C       -5.55850       -24.77224        10.17870
   C       -4.96651       -24.07829        11.23341
   C       -4.59854       -22.73181        11.08272
   C       -4.81131       -22.07079         9.86801
   C       -4.02739       -21.99128        12.14863
   N       -3.59182       -21.29556        12.94733
   C       -4.64759       -24.76005        12.53155
   O       -3.71379       -24.43652        13.20879
   O       -5.45881       -25.76079        12.89558
   C       -6.41189       -24.56473         7.73162
   C       -7.23551       -25.66420         7.63970
   C       -8.03591       -25.98903         6.52780
   N       -8.73876       -26.29332         5.67210
   C       -7.47265       -26.53381         8.72123
   N       -7.68755       -27.25491         9.58947
   H       -2.24311         3.66924         4.10182
   H       -2.95361         2.72688        -0.71288
   H       -2.27872         1.28297         4.59872
   H       -3.01529         0.27681        -0.23035
   H       -3.21283        -4.06118         4.26319
   H       -2.63017        -4.51898         0.39565
   H       -4.05447       -10.18344        -1.65559
   H       -5.82636       -12.70190         2.07944
   H       -6.81455       -18.48961         0.28157
   H       -6.06848       -19.30944        -3.48862
   H       -6.36286       -21.85019        -3.58825
   H       -6.51338       -23.90928        -2.04757
   H       -6.61289       -25.42042        -0.06806
   H       -6.56924       -26.37354         2.33204
   H       -6.40011       -25.57582         4.80702
   H       -6.16746       -22.50834         4.96005
   H       -5.78868       -25.82200        10.28171
   H       -4.52321       -21.03835         9.74122
   H       -6.19320       -25.92075        12.28620
*
