# ORCA input file
# SCF done       -200.412134058021          0.000607493884
! CAM-B3LYP def2-SVP def2/J RIJCOSX Grid4 TightSCF
%maxcore 5000
%tddft
    Mode sTDDFT
    Ethresh 5.0
    maxcore 5000
end

%pal
  nprocs 6
  end
* xyz 0 1
   C        4.99031        -8.41409        -1.00351
   C        6.06440        -7.75600        -0.47481
   F        7.23842        -7.75049        -1.12648
   C        5.95354        -7.07328         0.75173
   F        7.02409        -6.43094         1.23753
   C        4.76829        -7.05586         1.43296
   C        3.63761        -7.71060         0.90610
   C        3.75171        -8.40384        -0.33292
   C        2.63061        -9.06017        -0.89117
   C        1.42720        -9.00895        -0.24095
   C        1.31728        -8.30353         0.98861
   C        2.38603        -7.67628         1.56205
   C       -0.09217        -8.31262         1.42651
   O       -0.54304        -7.80161         2.43286
   C       -0.83280        -9.06897         0.39767
   C        0.10584        -9.51851        -0.60687
   C       -0.17691       -10.19895        -1.76547
   C        0.78980       -10.54482        -2.73131
   N        1.52876       -10.84813        -3.55662
   C       -1.45639       -10.62028        -2.18199
   N       -2.46156       -10.97774        -2.60822
   C       -2.18397        -9.31035         0.38758
   C       -3.22249        -8.76615         1.20616
   S       -4.41502       -10.03925         1.55522
   C       -5.85961        -9.14866         2.00878
   C       -7.11247        -9.66646         1.89276
   S       -8.31132        -8.60113         2.51018
   C       -7.11775        -7.43380         2.91119
   C       -5.86274        -7.85720         2.59611
   S       -4.43613        -6.86483         2.86628
   C       -3.29713        -7.47817         1.66709
   C       -2.36138        -6.48025         1.24251
   C       -1.84363        -6.44373        -0.00990
   C       -0.60387        -5.85004        -0.34285
   C        0.28371        -5.17130         0.47804
   C        1.53969        -5.03715        -0.10136
   C        1.62153        -5.61457        -1.38806
   S        0.13158        -6.27580        -1.89134
   C        2.95132        -5.50370        -1.84586
   C        3.71618        -4.85164        -0.86160
   C        2.84917        -4.52957         0.26229
   C        3.20401        -3.90513         1.42132
   C        2.27917        -3.66471         2.45950
   N        1.53576        -3.47091         3.31059
   C        4.52160        -3.46101         1.66160
   N        5.59079        -3.09934         1.86252
   C        5.05908        -4.72701        -1.20105
   C        5.33861        -5.28791        -2.43830
   S        3.90052        -5.96772        -3.19254
   C        6.60344        -5.36471        -3.06832
   N        6.77845        -5.91229        -4.31963
   C        8.09942        -5.84495        -4.63539
   C        9.03097        -6.13006        -5.61907
   C       10.27244        -5.69602        -5.11450
   N       10.08906        -5.16254        -3.85242
   C        8.77446        -5.23766        -3.53768
   C        7.83708        -4.93432        -2.55904
   C       11.54465        -5.72956        -5.71585
   C       11.80613        -6.19984        -6.97196
   C       13.10197        -6.17353        -7.51272
   C       13.43898        -6.60331        -8.77268
   C       14.75628        -6.58133        -9.37078
   C       15.91748        -6.10994        -8.81164
   C       17.16997        -6.11727        -9.46074
   N       18.21905        -6.09184        -9.92637
   C       16.04154        -5.54693        -7.52476
   N       16.23016        -5.07391        -6.49487
   C       14.64054        -7.15116       -10.71307
   C       13.30001        -7.50409       -10.94349
   C       12.48805        -7.17607        -9.75048
   O       11.29317        -7.34953        -9.62685
   C       12.88880        -8.06739       -12.13357
   C       13.83979        -8.28620       -13.12258
   C       15.17662        -7.93860       -12.90262
   C       15.58630        -7.37038       -11.70105
  Cl       16.34353        -8.21416       -14.13280
  Cl       13.36892        -8.98599       -14.61862
   H        5.09184        -8.93893        -1.94071
   H        4.70556        -6.53623         2.37665
   H        2.75480        -9.57716        -1.82827
   H        2.27252        -7.14802         2.49697
   H       -2.53219       -10.09986        -0.26960
   H       -7.38709       -10.62140         1.49385
   H       -7.39590        -6.50427         3.36415
   H       -2.04769        -5.77208         1.99584
   H       -2.30028        -7.04882        -0.78340
   H        0.02145        -4.82881         1.46159
   H        5.80770        -4.25588        -0.59212
   H        6.04106        -6.29733        -4.88516
   H        8.87198        -6.58599        -6.57456
   H       10.82586        -4.79364        -3.27547
   H        7.99824        -4.48319        -1.60194
   H       12.36788        -5.33679        -5.12939
   H       11.00810        -6.59427        -7.58015
   H       13.88342        -5.77649        -6.87772
   H       11.85443        -8.33028       -12.28911
   H       16.62518        -7.11654       -11.56958
*
