# ORCA input file
# SCF done       -187.697264981154          0.000922242753
! CAM-B3LYP def2-SVP def2/J RIJCOSX Grid4 TightSCF
%maxcore 5000
%tddft
    Mode sTDDFT
    Ethresh 5.0
    maxcore 5000
end

%pal
  nprocs 6
  end
* xyz 0 1
   C        2.57689        -0.31714         6.31962
   C        2.19987        -0.94893         5.17459
   C        1.59665        -0.05387         4.26954
   C        1.53226         1.25340         4.77148
   S        2.20589         1.37760         6.33384
   C        0.90023         2.08590         3.80318
   C        0.58439         1.29510         2.69128
   C        0.98714        -0.07943         2.95594
   C        0.76263        -1.15475         2.14353
   C        0.07912        -1.01235         0.91984
   N       -0.49060        -0.87884        -0.06764
   C        1.17072        -2.46002         2.48424
   N        1.51776        -3.51850         2.75784
   C       -0.03467         2.01179         1.67134
   C       -0.23107         3.33647         2.01314
   S        0.41266         3.70963         3.59943
   C       -0.87385         4.31222         1.20545
   S       -0.33092         5.94023         1.15517
   C       -1.35271         6.35168        -0.19482
   C       -2.14018         5.24475        -0.56476
   C       -1.90064         4.10498         0.27916
   C       -2.69501         2.93039         0.18604
   C       -2.78508         1.93934         1.29441
   O       -2.84291         2.25970         2.45181
   O       -2.89807         0.64913         0.93951
   C       -3.60537         2.84482        -0.84018
   C       -3.79435         3.91100        -1.71950
   C       -3.13722         5.11479        -1.57652
   O       -3.44856         6.15064        -2.37740
   C       -1.19225         7.69263        -0.66529
   C       -1.36321         8.15130        -1.95169
   C       -1.02209         9.43223        -2.38687
   C       -0.39740        10.41155        -1.49828
   C       -0.18407        10.21094        -0.18039
   S       -0.59926         8.75565         0.61935
   C       -0.10495        11.54077        -2.31196
   C       -0.52786        11.31351        -3.62176
   C       -0.23669        12.41616        -4.45882
   C        0.37628        13.41798        -3.77557
   S        0.62847        13.07783        -2.09875
   C       -1.12791         9.99969        -3.68340
   C       -1.77362         9.39303        -4.76736
   C       -1.97090         9.94478        -6.00515
   C       -2.74917         9.32639        -6.99523
   S       -3.62562         7.87801        -6.61884
   C       -4.53127         7.90028        -8.10833
   C       -4.12017         8.98603        -8.90028
   C       -3.08462         9.76764        -8.29187
   C       -2.55157        10.88697        -8.97688
   C       -1.35475        11.63876        -8.50578
   O       -1.31157        12.82882        -8.36984
   O       -0.25215        10.88310        -8.29772
   C       -3.11283        11.27108       -10.17217
   C       -4.15242        10.53800       -10.75077
   C       -4.64529         9.40382       -10.14862
   O       -5.63887         8.67501       -10.70752
   C       -5.50101         6.88080        -8.22625
   C       -5.83331         6.07024        -7.14067
   C       -6.76566         5.10320        -7.45828
   C       -7.16746         5.14497        -8.80206
   S       -6.38516         6.40678        -9.66630
   C       -8.12596         4.11803        -8.99230
   C       -8.31650         3.43404        -7.77403
   C       -7.47622         4.02810        -6.77259
   C       -7.32734         3.70212        -5.44742
   C       -8.03502         2.64649        -4.84113
   N       -8.60316         1.78207        -4.34474
   C       -6.43855         4.40904        -4.62417
   N       -5.69659         4.98700        -3.96023
   C       -9.25680         2.38808        -7.88609
   C       -9.75140         2.29511        -9.14732
   S       -9.09282         3.47527       -10.24429
   H        3.05791        -0.74177         7.17775
   H        2.34844        -1.99786         4.99289
   H       -0.29690         1.61335         0.70904
   H       -2.74660         0.49043        -0.00327
   H       -4.24181         1.97686        -0.93804
   H       -4.53729         3.82012        -2.49725
   H       -4.20248         5.89727        -2.94500
   H       -1.74687         7.44578        -2.67193
   H        0.25575        10.95604         0.46302
   H       -0.44484        12.49548        -5.50968
   H        0.70635        14.36265        -4.16076
   H       -2.18934         8.40895        -4.58738
   H       -1.57403        10.92183        -6.22013
   H       -0.42300         9.94032        -8.42135
   H       -2.72445        12.13938       -10.68071
   H       -4.56836        10.86099       -11.69477
   H       -5.91105         9.06207       -11.54928
   H       -5.40803         6.21573        -6.16543
   H       -9.54920         1.74159        -7.07854
   H      -10.47494         1.60039        -9.52387
*
