# ORCA input file
# SCF done       -167.051715386391          0.000839605912
! CAM-B3LYP def2-SVP def2/J RIJCOSX Grid4 TightSCF
%maxcore 5000
%tddft
    Mode sTDDFT
    Ethresh 5.0
    maxcore 5000
end

%pal
  nprocs 6
  end
* xyz 0 1
   C        1.56515         1.35973         0.31740
   C        0.46311         0.97106         1.03982
   N       -0.15960         1.90673         1.91762
   O        0.46492         2.91786         2.16837
   O       -1.26494         1.66110         2.35547
   C        0.06961        -0.37925         0.80679
   C       -1.06162        -1.07939         1.47511
   C        0.90756        -0.97991        -0.11122
   S        2.15083         0.11805        -0.67497
   C        0.89379        -2.30467        -0.63910
   C        1.79756        -2.82102        -1.54772
   C        1.51865        -4.14742        -1.88012
   C        0.38421        -4.64683        -1.21764
   S       -0.32905        -3.48658        -0.19044
   C        0.18176        -5.99206        -1.61380
   C        1.18942        -6.34178        -2.52730
   C        2.05462        -5.18981        -2.73793
   C        3.12034        -5.10625        -3.58593
   C        3.88791        -3.92860        -3.70294
   N        4.50630        -2.96772        -3.79595
   C        3.49497        -6.17644        -4.42631
   N        3.77163        -7.03592        -5.13315
   C        1.09707        -7.65925        -2.96616
   C        0.02023        -8.32329        -2.40082
   S       -0.89342        -7.28716        -1.31289
   C       -0.36772        -9.67899        -2.61229
   C        0.45409       -10.58487        -3.24008
   C        0.13089       -11.91600        -3.48489
   C       -1.16718       -12.47140        -3.09650
   C       -2.12385       -11.76961        -2.45059
   S       -1.96046       -10.11857        -2.01002
   C       -1.13484       -13.82620        -3.52817
   C        0.09195       -14.10950        -4.13554
   C        0.15884       -15.45349        -4.56720
   C       -0.98501       -16.13139        -4.28660
   S       -2.18911       -15.18094        -3.48840
   C        0.90462       -12.91853        -4.10885
   C        2.22465       -12.71611        -4.55897
   C        3.02640       -13.60298        -5.20976
   C        4.35795       -13.30611        -5.58255
   C        5.10547       -12.16602        -5.30798
   C        6.38973       -12.23935        -5.82980
   C        6.64154       -13.43922        -6.51894
   S        5.28457       -14.48075        -6.50755
   C        7.96549       -13.40117        -7.01335
   C        8.55322       -12.17518        -6.64214
   C        7.59344       -11.41637        -5.86415
   C        7.77777       -10.21654        -5.24150
   C        6.77166        -9.61837        -4.45327
   N        5.96696        -9.14572        -3.78607
   C        9.00552        -9.52170        -5.28454
   N       10.00666        -8.96320        -5.28551
   C        9.86266       -12.03620        -7.10333
   C       10.28068       -13.14040        -7.81643
   S        9.03269       -14.38334        -7.90672
   C       11.55290       -13.41807        -8.39867
   C       12.53242       -12.56432        -8.89353
   N       12.33253       -11.17629        -9.11185
   O       11.18815       -10.77277        -9.21206
   O       13.31532       -10.47003        -9.21930
   C       13.72640       -13.23863        -9.30179
   C       14.93414       -12.58179        -9.87085
   C       13.61412       -14.58129        -9.13331
   S       12.10494       -15.05960        -8.46131
   H        2.02655         2.32748         0.33473
   H       -1.54629        -0.42615         2.19320
   H       -0.70479        -1.97280         1.98765
   H       -1.80264        -1.39029         0.73856
   H        2.61883        -2.24897        -1.94082
   H        1.77104        -8.10470        -3.67341
   H        1.42357       -10.22743        -3.55253
   H       -3.06900       -12.20018        -2.16012
   H        0.99631       -15.91363        -5.05787
   H       -1.20672       -17.15837        -4.50206
   H        2.63430       -11.73790        -4.35152
   H        2.65798       -14.58172        -5.47441
   H        4.72749       -11.32969        -4.75092
   H       10.47846       -11.17521        -6.92224
   H       14.66584       -11.94633       -10.71284
   H       15.64716       -13.33330       -10.19959
   H       15.40177       -11.94235        -9.12456
   H       14.34240       -15.33138        -9.36783
*
