# ORCA input file
# SCF done       -207.414217889390          0.000560513789
! CAM-B3LYP def2-SVP def2/J RIJCOSX Grid4 TightSCF
%maxcore 5000
%tddft
    Mode sTDDFT
    Ethresh 5.0
    maxcore 5000
end

%pal
  nprocs 6
  end
* xyz 0 1
   C       -2.17336         2.47282        -1.50312
   C       -3.44465         3.02756        -1.57317
   C       -4.07958         3.52971        -0.44566
   C       -3.44829         3.50619         0.79018
   C       -2.18032         2.96233         0.86486
   C       -1.54036         2.43308        -0.27173
   C       -0.23949         1.89543         0.12469
   C        0.45697         0.94100        -0.56786
   C        0.06822         0.44424        -1.83072
   N       -0.20699        -0.00266        -2.85068
   C        1.58653         0.26940        -0.06001
   N        2.49636        -0.31724         0.32243
   C        0.00726         2.33936         1.48117
   C       -1.28553         2.84700         2.03156
   O       -1.50935         3.13925         3.18279
   C        1.12948         2.44745         2.24370
   C        2.48101         2.40587         1.83590
   C        3.01101         2.59479         0.56663
   C        4.39586         2.51773         0.55913
   C        4.94197         2.27343         1.83794
   S        3.74138         2.15925         3.03930
   C        6.34944         2.20617         1.72129
   C        6.69461         2.40451         0.36599
   C        5.47732         2.58668        -0.40812
   C        5.35277         2.74712        -1.75641
   C        6.46221         2.77446        -2.62843
   N        7.35350         2.80023        -3.34838
   C        4.08549         2.88856        -2.36120
   N        3.04792         3.00734        -2.83495
   C        8.06441         2.37909         0.14826
   C        8.77672         2.16184         1.32292
   S        7.71773         1.96939         2.71420
   C       10.18529         2.10210         1.50800
   C       11.14181         2.33892         0.49055
   C       12.55095         2.28904         0.76111
   N       13.42689         2.52823        -0.23580
   C       12.99597         2.80364        -1.42307
   C       11.60213         2.86309        -1.68832
   N       10.73114         2.63758        -0.75999
   F       11.15415         3.16116        -2.90062
   F       13.89296         3.03268        -2.37455
   C       13.09131         2.00927         2.03737
   C       12.13920         1.75803         3.05205
   C       10.72451         1.80969         2.78174
   N       10.00521         1.55222         3.87498
   S       10.99367         1.27057         5.10880
   N       12.37879         1.46381         4.33107
   C       14.49132         2.00710         2.27113
   C       15.12793         1.76697         3.48511
   C       16.50616         1.87639         3.37929
   C       16.92959         2.19756         2.07025
   S       15.62454         2.36044         0.97941
   C       18.33975         2.30135         2.07397
   C       18.80884         2.05261         3.38272
   C       17.67216         1.76528         4.24012
   C       17.70686         1.44115         5.56470
   C       18.92734         1.35980         6.26808
   N       19.92698         1.30596         6.82736
   C       16.53716         1.17662         6.30762
   N       15.58934         0.96897         6.91829
   C       20.19024         2.12717         3.48658
   C       20.79239         2.42385         2.27061
   S       19.60544         2.64058         0.98930
   C       22.15910         2.62375         1.97791
   C       23.25684         2.26628         2.69895
   C       23.47534         1.37063         3.81564
   C       22.77758         0.22428         4.09754
   C       23.13658        -0.68341         5.11629
   N       23.39187        -1.45852         5.92272
   C       21.68331        -0.23505         3.34015
   N       20.80067        -0.65547         2.73771
   C       24.74462         1.74785         4.42780
   C       25.40582         2.67158         3.57672
   C       24.54712         2.96432         2.41775
   O       24.79186         3.65837         1.45804
   C       26.64734         3.18312         3.86974
   C       27.25713         2.77540         5.05998
   C       26.58013         1.86725         5.91053
   C       25.32815         1.34188         5.61156
   S       27.51533         1.51845         7.32879
   C       28.78053         2.56302         6.78167
   C       28.52160         3.15221         5.59386
   H       -1.69460         2.09943        -2.39396
   H       -3.94711         3.06751        -2.52783
   H       -5.07154         3.94647        -0.53312
   H       -3.92258         3.89846         1.67650
   H        0.95013         2.66368         3.29261
   H        2.40641         2.82339        -0.29185
   H        8.55006         2.51250        -0.79979
   H       14.58077         1.53247         4.37957
   H       20.74135         2.02079         4.40303
   H       22.37463         3.20682         1.08714
   H       27.13209         3.87731         3.20102
   H       24.84454         0.66122         6.29270
   H       29.65429         2.67384         7.39399
   H       29.19153         3.83245         5.09992
*
