# ORCA input file
# SCF done       -195.683571211527          0.000558437779
! CAM-B3LYP def2-SVP def2/J RIJCOSX Grid4 TightSCF
%maxcore 5000
%tddft
    Mode sTDDFT
    Ethresh 5.0
    maxcore 5000
end

%pal
  nprocs 6
  end
* xyz 0 1
   C       -1.74496        -5.42390         5.45736
   C       -2.37781        -4.42724         6.19418
   C       -2.59015        -4.62245         7.66116
   C       -2.81827        -3.24883         5.56905
   C       -3.50681        -2.18447         6.36161
   C       -2.61132        -3.07372         4.20516
   C       -1.97987        -4.06474         3.47992
   C       -1.54644        -5.25268         4.09802
   C       -0.96829        -6.13080         3.08962
   C       -0.80342        -7.48329         3.20163
   C       -1.00017        -8.19894         4.40038
   N       -1.13224        -8.81831         5.35751
   C       -0.49058        -8.32376         2.11371
   N       -0.28656        -9.04858         1.24729
   C       -0.83699        -5.34731         1.87412
   C       -1.64409        -4.09869         2.04803
   O       -1.90915        -3.28858         1.19117
   C       -0.08025        -5.50181         0.76779
   C        0.99955        -6.42152         0.53135
   C        1.26552        -6.90091        -0.74954
   C        2.33395        -7.78241        -1.04489
   N        2.37611        -8.18685        -2.34558
   C        1.43962        -7.66895        -3.03394
   S        0.34454        -6.60289        -2.18724
   C        3.22144        -8.20031        -0.04306
   C        2.96473        -7.72440         1.23714
   C        1.88809        -6.84881         1.53365
   N        1.83686        -6.44929         2.83454
   C        2.78471        -6.95863         3.52313
   S        3.88478        -8.00839         2.68094
   C        4.34019        -9.06842        -0.38483
   C        4.64442       -10.23646         0.32474
   C        5.69966       -11.12129        -0.08919
   N        5.99021       -12.21218         0.66157
   C        5.25835       -12.47341         1.68570
   C        4.15966       -11.63544         2.05525
   N        3.88873       -10.55801         1.40599
   F        3.40685       -11.93732         3.10704
   F        5.56108       -13.53921         2.41937
   C        6.45826       -10.87806        -1.24205
   C        6.17955        -9.69373        -1.93766
   C        5.13603        -8.79080        -1.50489
   N        5.05628        -7.71450        -2.29596
   S        6.12839        -7.85244        -3.46862
   N        6.77798        -9.25393        -3.05218
   C        7.44719       -11.83736        -1.71347
   C        8.72407       -11.48159        -2.13223
   C        9.67976       -12.42454        -2.59112
   N       10.86891       -11.87539        -2.96285
   C       10.88669       -10.61199        -2.77535
   S        9.43725        -9.89850        -2.13585
   C        9.37816       -13.79727        -2.64883
   C        8.08424       -14.14160        -2.25636
   C        7.13325       -13.20149        -1.78957
   N        5.92069       -13.74283        -1.48292
   C        5.91004       -15.00479        -1.64421
   S        7.39206       -15.73032        -2.21986
   C       10.27863       -14.79654        -3.15164
   C       11.62902       -14.83274        -3.15809
   C       12.32050       -15.78246        -4.08784
   O       11.81660       -16.71575        -4.66702
   C       13.70347       -15.28804        -4.17208
   C       13.88491       -14.23258        -3.25951
   C       15.11480       -13.60164        -3.18499
   C       16.15682       -14.01985        -4.00732
   C       15.97091       -15.07850        -4.91161
   C       14.73411       -15.70968        -4.98851
   C       17.09392       -15.52861        -5.79004
   C       17.48163       -13.33239        -3.91958
   C       12.65019       -14.02980        -2.51250
   C       12.53755       -13.38366        -1.31286
   C       11.37574       -13.40943        -0.51501
   N       10.46612       -13.42411         0.18455
   C       13.58430       -12.65754        -0.70997
   N       14.39497       -12.03448        -0.18771
   H       -1.40727        -6.31819         5.95695
   H       -2.20169        -5.58471         7.98241
   H       -3.65158        -4.57817         7.90246
   H       -2.09151        -3.83712         8.22839
   H       -4.41290        -2.57582         6.82299
   H       -3.77552        -1.34473         5.72676
   H       -2.86072        -1.82381         7.16131
   H       -2.94131        -2.17467         3.70630
   H       -0.28541        -4.80653        -0.04205
   H        1.29593        -7.86135        -4.07925
   H        2.91174        -6.77083         4.57180
   H       11.73997       -10.00017        -2.99621
   H        5.05388       -15.62114        -1.45081
   H        9.79666       -15.63204        -3.65440
   H       15.27486       -12.78082        -2.50374
   H       14.57116       -16.52560        -5.67677
   H       17.93317       -15.87815        -5.18979
   H       17.45197       -14.70549        -6.40715
   H       16.77312       -16.33695        -6.44094
   H       17.46199       -12.55206        -3.16401
   H       17.74512       -12.88451        -4.87727
   H       18.26509       -14.04462        -3.66368
*
