# ORCA input file
# SCF done       -193.807345254349          0.000792027878
! CAM-B3LYP def2-SVP def2/J RIJCOSX Grid4 TightSCF
%maxcore 5000
%tddft
    Mode sTDDFT
    Ethresh 5.0
    maxcore 5000
end

%pal
  nprocs 6
  end
* xyz 0 1
   C        8.33500         4.71537        -5.89745
   C        8.48560         5.59799        -6.92264
   S        9.91802         5.25744        -7.82139
   C       10.32299         3.91693        -6.81697
   C        9.39349         3.75142        -5.84118
   C        9.15756         2.84237        -4.71864
   O        9.85536         1.91061        -4.36057
   C        7.88961         3.28630        -4.10775
   C        7.39772         4.45553        -4.82146
   C        6.28146         5.20861        -4.57046
   C        5.95499         6.31729        -5.38009
   N        5.67641         7.21927        -6.03195
   C        5.35708         5.00511        -3.52720
   N        4.57043         4.89687        -2.69774
   C        7.24865         2.66789        -3.06661
   C        7.59799         1.52273        -2.33115
   C        6.74719         0.99391        -1.35138
   C        7.25494        -0.15366        -0.77509
   C        8.52394        -0.50149        -1.30156
   S        9.06969         0.56872        -2.50885
   C        8.94409        -1.70260        -0.68447
   C        7.94118        -2.12297         0.21882
   C        6.85893        -1.15215         0.20527
   C        5.71924        -1.17896         0.95319
   C        4.73029        -0.17653         0.85843
   N        3.92262         0.63335         0.78544
   C        5.45734        -2.21489         1.87493
   N        5.24813        -3.05567         2.62553
   C        8.24093        -3.33144         0.83178
   C        9.46997        -3.82476         0.40820
   S       10.27312        -2.77392        -0.75008
   C       10.08655        -5.03749         0.75749
   C       11.35919        -5.44218         0.33703
   C       11.70831        -6.75682         0.78875
   N       12.87839        -7.31081         0.47505
   C       13.70011        -6.58839        -0.25734
   C       15.00777        -7.20109        -0.60254
   O       15.31221        -8.32344        -0.25883
   C       15.90671        -6.34442        -1.39465
   C       15.58645        -5.11312        -1.80603
   C       14.29573        -4.46376        -1.51847
   O       14.02354        -3.35169        -1.91776
   C       13.35489        -5.27151        -0.70179
   N       12.19591        -4.72043        -0.40709
   C       10.70126        -7.36386         1.54794
   S        9.34804        -6.28500         1.71863
   C       10.75243        -8.67782         2.04092
   C        9.76891        -9.37571         2.73383
   C       10.15756       -10.68311         2.98830
   C       11.44817       -10.97516         2.49259
   S       12.18543        -9.64161         1.71705
   C       11.73136       -12.33216         2.76583
   C       10.61975       -12.90638         3.42778
   C        9.60764       -11.87948         3.60960
   C        8.40394       -11.99614         4.23825
   C        7.50836       -10.90875         4.33236
   N        6.77873       -10.02740         4.40385
   C        7.96903       -13.18765         4.85955
   N        7.59804       -14.13175         5.39248
   C       10.77637       -14.26029         3.68598
   C       12.00158       -14.73987         3.23675
   S       12.97622       -13.45663         2.50168
   C       12.60357       -16.01387         3.28751
   C       12.07924       -17.24344         3.57661
   C       10.63980       -17.60730         3.73161
   O        9.67748       -16.87233         3.72054
   C       10.62892       -19.07019         3.84546
   C        9.69646       -20.04632         3.98609
   S       10.44512       -21.59788         4.04941
   C       12.02521       -20.92811         3.88497
   C       11.96830       -19.57096         3.78631
   C       12.88316       -18.45757         3.64247
   C       14.24818       -18.58145         3.62343
   C       14.86408       -19.84876         3.70068
   N       15.38336       -20.87018         3.76023
   C       15.18605       -17.53327         3.54812
   N       16.00694       -16.73109         3.50087
   H        7.86314         6.41947        -7.21567
   H       11.20896         3.34548        -7.00866
   H        6.30358         3.09720        -2.75440
   H        5.80268         1.44755        -1.10741
   H        7.62117        -3.84830         1.54253
   H       16.86566        -6.78517        -1.63155
   H       16.27648        -4.51760        -2.38846
   H        8.82925        -8.93220         3.01066
   H       10.04552       -14.88907         4.16068
   H       13.65622       -15.99546         3.02815
   H        8.63127       -19.95581         4.05893
   H       12.87483       -21.58078         3.86930
*
