# ORCA input file
# SCF done       -217.126938424959          0.000405957263
! CAM-B3LYP def2-SVP def2/J RIJCOSX Grid4 TightSCF
%maxcore 5000
%tddft
    Mode sTDDFT
    Ethresh 5.0
    maxcore 5000
end

%pal
  nprocs 6
  end
* xyz 0 1
   C       15.83470        -9.34564        16.05845
   C       15.08986        -8.97037        17.14356
   C       14.31976        -7.79846        17.10335
   C       14.30480        -7.01793        15.97947
   C       15.06169        -7.37338        14.84478
   C       15.05712        -6.56500        13.68468
   C       15.80646        -6.94011        12.60273
   C       16.56696        -8.14560        12.64054
   C       16.59572        -8.94027        13.75033
   C       15.84183        -8.56548        14.88539
   C       17.22843        -8.34297        11.34052
   O       17.99686        -9.21686        11.01188
   C       16.69795        -7.25577        10.46238
   C       16.01073        -6.30082        11.30697
   C       15.81674        -4.96757        11.05289
   C       16.22408        -4.32426         9.86878
   N       16.55912        -3.75695         8.92817
   C       15.27110        -4.06308        11.98829
   N       14.83887        -3.28456        12.71186
   C       16.85040        -7.37703         9.11538
   C       16.13842        -6.72656         8.08293
   C       14.90903        -6.08463         8.14721
   C       14.51226        -5.58888         6.91377
   C       15.44034        -5.86018         5.88530
   S       16.78568        -6.73760         6.44675
   C       14.95312        -5.30334         4.67910
   C       13.71769        -4.67156         4.94929
   C       13.40917        -4.82374         6.36210
   C       12.33283        -4.33359         7.04139
   C       11.31762        -3.59041         6.40336
   N       10.49054        -2.99446         5.87914
   C       12.17775        -4.54983         8.42712
   N       12.06313        -4.73916         9.55219
   C       13.14990        -4.09582         3.82209
   C       13.94282        -4.29179         2.69663
   S       15.41413        -5.19120         3.03798
   C       13.69344        -3.88213         1.37720
   C       14.52405        -4.15150         0.28303
   C       14.01122        -3.63716        -0.95285
   N       14.67002        -3.80106        -2.09898
   C       15.81010        -4.45736        -2.03972
   C       16.54987        -4.63529        -3.31435
   O       16.13972        -4.20550        -4.37175
   C       17.82037        -5.37143        -3.19928
   C       18.29349        -5.86026        -2.04806
   C       17.60145        -5.72283        -0.75516
   O       18.04634        -6.18599         0.27384
   C       16.31890        -4.97750        -0.80605
   N       15.67518        -4.81963         0.33198
   C       12.78889        -2.97146        -0.80604
   S       12.29364        -2.98833         0.86139
   C       12.06062        -2.38483        -1.85329
   C       10.86046        -1.68611        -1.77852
   C       10.43991        -1.26317        -3.03105
   C       11.32423        -1.64918        -4.06362
   S       12.67928        -2.52144        -3.49216
   C       10.80174        -1.18350        -5.29138
   C        9.59194        -0.49431        -5.04006
   C        9.32276        -0.53366        -3.61300
   C        8.24828        -0.01574        -2.95311
   C        7.18162         0.63654        -3.60971
   N        6.29039         1.15018        -4.11486
   C        8.11799        -0.12022        -1.55130
   N        8.01406        -0.20191        -0.41249
   C        9.00884         0.02407        -6.18727
   C        9.75250        -0.26172        -7.32606
   S       11.19403        -1.21394        -6.94445
   C        9.52400         0.01412        -8.69036
   C        8.66782         0.90912        -9.26913
   C        8.44033         1.01498       -10.70075
   C        8.76916         0.08169       -11.65022
   C        8.50367         0.23168       -13.02764
   N        8.32429         0.29444       -14.15979
   C        9.37440        -1.16684       -11.39564
   N        9.84488        -2.20696       -11.26796
   C        7.71049         2.25147       -10.94929
   C        7.42390         2.86415        -9.69694
   C        6.73456         4.03884        -9.60618
   C        6.29129         4.66860       -10.79037
   C        5.57203         5.87936       -10.76082
   C        5.15596         6.47375       -11.92129
   C        5.44033         5.88266       -13.16139
   C        6.13672         4.70637       -13.22469
   C        6.58008         4.06660       -12.04934
   C        7.29647         2.84911       -12.11047
   C        7.97796         2.04743        -8.60540
   O        7.92453         2.30456        -7.42171
   H       16.42900       -10.24731        16.08358
   H       15.08959        -9.57476        18.03826
   H       13.73820        -7.51669        17.96824
   H       13.71606        -6.11319        15.94447
   H       14.44807        -5.67463        13.67454
   H       17.18452        -9.84540        13.76251
   H       17.57099        -8.12709         8.80332
   H       14.32294        -6.02873         9.04621
   H       12.21574        -3.56397         3.78987
   H       18.36090        -5.49643        -4.12783
   H       19.23194        -6.39670        -2.00841
   H       10.34823        -1.51136        -0.84933
   H        8.09456         0.58701        -6.21430
   H       10.14695        -0.56850        -9.35956
   H        6.52844         4.47911        -8.64193
   H        5.35613         6.32912        -9.80279
   H        4.60576         7.40224       -11.89005
   H        5.10419         6.36425       -14.06737
   H        6.35650         4.24687       -14.17719
   H        7.50414         2.42294       -13.07906
*
