# ORCA input file
# SCF done       -211.942825382072          0.000768946304
! CAM-B3LYP def2-SVP def2/J RIJCOSX Grid4 TightSCF
%maxcore 5000
%tddft
    Mode sTDDFT
    Ethresh 5.0
    maxcore 5000
end

%pal
  nprocs 6
  end
* xyz 0 1
   C        7.81268        10.68041        -3.80113
   C        8.54722        11.43887        -4.67186
   C        9.54603        10.84629        -5.45872
   C        9.79700         9.50447        -5.36401
   C        9.05855         8.69323        -4.47886
   C        9.30714         7.30443        -4.38391
   C        8.56907         6.54881        -3.51409
   C        7.56816         7.16042        -2.70284
   C        7.30207         8.49695        -2.78059
   C        8.04520         9.29636        -3.67850
   C        6.95456         6.14122        -1.83276
   O        6.03829         6.27152        -1.05498
   C        7.76082         4.90504        -2.05842
   C        8.57621         5.11745        -3.23486
   C        9.02529         4.14378        -4.08910
   C        8.74305         2.77481        -3.90851
   N        8.49137         1.65944        -3.80443
   C        9.72677         4.41156        -5.28130
   N       10.31647         4.58036        -6.25156
   C        7.70520         3.90470        -1.13882
   C        8.62830         2.87158        -0.85798
   C        8.38206         1.78174        -0.03470
   C        9.50523         0.97982         0.13236
   C       10.63593         1.47682        -0.54943
   S       10.30652         2.91265        -1.39793
   C       11.73200         0.61641        -0.30537
   C       11.29831        -0.42290         0.54047
   C        9.88509        -0.23284         0.83581
   C        9.09378        -1.02455         1.61488
   C        9.59347        -2.18060         2.25053
   N       10.00464        -3.11847         2.76669
   C        7.73153        -0.73684         1.84463
   N        6.62617        -0.50610         2.04127
   C       12.31379        -1.31306         0.86264
   C       13.52795        -0.96697         0.27666
   S       13.38959         0.49216        -0.69209
   C       14.76187        -1.66850         0.39830
   C       14.87557        -2.84252         1.08172
   C       16.10193        -3.52665         1.24328
   C       17.29789        -3.00427         0.86031
   C       17.34050        -1.62195         0.24223
   C       15.98670        -1.15002        -0.33947
   N       15.90424         0.28387        -0.45014
   C       16.59164         1.01200         0.31242
   C       17.54155         0.45081         1.28993
   N       17.88342        -0.75800         1.26926
   F       18.01684         1.25529         2.23036
   F       16.47032         2.32915         0.23257
   C       18.54699        -3.62228         1.14210
   C       19.81561        -3.12552         0.88290
   C       20.81899        -3.96888         1.34817
   C       20.31964        -5.12776         1.97027
   S       18.61252        -5.17440         1.96977
   C       21.41198        -5.89667         2.43548
   C       22.60976        -5.21930         2.10899
   C       22.27377        -4.00066         1.39236
   C       23.12617        -3.08808         0.84566
   C       24.53186        -3.21759         0.88889
   N       25.67465        -3.30147         0.88672
   C       22.64911        -1.95354         0.15447
   N       22.25812        -1.03847        -0.41555
   C       23.74797        -5.86902         2.56571
   C       23.44507        -7.04357         3.24272
   S       21.69952        -7.34346         3.27817
   C       24.25134        -8.02664         3.85212
   C       25.58086        -8.01555         4.17178
   C       26.28720        -9.15436         4.73804
   C       25.85196       -10.45434         4.77710
   C       26.59725       -11.51854         5.32764
   N       27.14574       -12.42862         5.76222
   C       24.63297       -10.93377         4.25351
   N       23.67302       -11.40723         3.83628
   C       27.59227        -8.69196         5.19335
   C       27.72852        -7.31837         4.84756
   C       28.85706        -6.60652         5.13566
   C       29.92380        -7.24992         5.80153
   C       31.11406        -6.56934         6.12453
   C       32.13191        -7.21183         6.77583
   C       32.00399        -8.56290         7.13140
   C       30.86113        -9.25304         6.83107
   C       29.79311        -8.62275         6.16063
   C       28.61199        -9.33352         5.84596
   C       26.50479        -6.85125         4.17718
   O       26.30223        -5.72745         3.76829
   H        7.04241        11.13122        -3.19265
   H        8.36279        12.49915        -4.75881
   H       10.11572        11.45870        -6.14146
   H       10.56265         9.04311        -5.97026
   H       10.08555         6.87228        -4.99361
   H        6.53376         8.94057        -2.16497
   H        6.86528         3.96322        -0.45188
   H        7.41556         1.59186         0.39635
   H       12.18370        -2.16926         1.49732
   H       14.00531        -3.27894         1.54390
   H       16.07820        -4.48940         1.73306
   H       18.07589        -1.61690        -0.57373
   H       15.90148        -1.52606        -1.36983
   H       19.99514        -2.18106         0.40644
   H       24.75543        -5.51697         2.43926
   H       23.69934        -8.91927         4.12382
   H       28.93345        -5.56594         4.85717
   H       31.20627        -5.52928         5.84791
   H       33.04071        -6.68272         7.02072
   H       32.81645        -9.05481         7.64483
   H       30.75891       -10.29376         7.10154
   H       28.54377       -10.36979         6.13633
*
