# ORCA input file
# SCF done       -232.525793235442          0.000380391368
! CAM-B3LYP def2-SVP def2/J RIJCOSX Grid4 TightSCF
%maxcore 5000
%tddft
    Mode sTDDFT
    Ethresh 5.0
    maxcore 5000
end

%pal
  nprocs 6
  end
* xyz 0 1
   C       -3.45332        -2.63214         5.79690
   C       -3.50958        -2.74258         4.41734
   C       -4.40560        -3.61427         3.80274
   C       -5.26955        -4.40114         4.55618
   C       -5.20794        -4.28816         5.93108
   C       -4.30692        -3.41320         6.56567
   C       -4.46935        -3.51270         8.01310
   C       -3.77006        -2.81807         8.95386
   C       -2.75865        -1.87316         8.66352
   N       -1.93256        -1.09657         8.49282
   C       -3.96024        -2.94545        10.34962
   N       -4.06258        -3.00163        11.49018
   C       -5.52302        -4.49789         8.26680
   C       -6.03840        -4.93974         9.41617
   C       -6.00862        -5.00637         6.94324
   O       -6.87098        -5.82821         6.76223
   C       -4.39286        -3.74066         2.30305
   F       -4.11889        -2.55228         1.70577
   F       -5.60429        -4.11701         1.81531
   F       -2.13939        -4.43299         2.37562
   C       -3.34108        -4.78828         1.82050
   C       -3.26635        -4.86833         0.32870
   C       -3.62502        -6.06460        -0.15658
   C       -3.97191        -7.06555         0.84348
   S       -3.83003        -6.46796         2.45423
   C       -4.31114        -8.22811         0.21541
   C       -4.19414        -8.03824        -1.21377
   C       -3.76698        -6.68577        -1.47402
   C       -3.53625        -6.09904        -2.68384
   C       -3.70594        -6.79615        -3.89995
   N       -3.83946        -7.35135        -4.89380
   C       -3.10851        -4.76018        -2.80633
   N       -2.75615        -3.67473        -2.91538
   C       -4.49641        -9.16378        -1.92810
   C       -4.85796       -10.24718        -1.09826
   S       -4.82171        -9.83353         0.61294
   C       -5.20346       -11.52857        -1.52182
   C       -5.55794       -12.53454        -0.57409
   C       -5.89967       -13.86112        -0.96035
   N       -6.23043       -14.75925        -0.02384
   C       -6.22938       -14.40413         1.23396
   C       -5.88418       -13.09806         1.61533
   N       -5.56072       -12.20044         0.72186
   F       -5.87255       -12.72561         2.89164
   F       -6.56632       -15.32570         2.13150
   C       -5.89393       -14.28783        -2.32085
   C       -5.55518       -13.28474        -3.27918
   C       -5.22308       -11.93847        -2.89005
   N       -4.94373       -11.17882        -3.94080
   S       -5.08072       -12.04984        -5.29092
   N       -5.50274       -13.44248        -4.59513
   C       -6.18795       -15.61048        -2.64898
   C       -6.16926       -16.17175        -3.94327
   C       -6.47315       -17.50545        -3.93758
   C       -6.74985       -18.01547        -2.61396
   S       -6.60735       -16.78237        -1.40524
   C       -7.02838       -19.34824        -2.70476
   C       -6.92841       -19.76404        -4.09654
   C       -6.58617       -18.58194        -4.88935
   C       -6.41175       -18.52885        -6.24191
   C       -6.56378       -19.66674        -7.06109
   N       -6.69101       -20.59471        -7.72254
   C       -6.07322       -17.33255        -6.91032
   N       -5.79641       -16.36840        -7.46496
   C       -7.13878       -21.06672        -4.32365
   C       -7.42526       -21.86669        -3.08563
   S       -7.43180       -20.65154        -1.65932
   C       -6.24204       -22.82997        -2.85090
   C       -8.69372       -22.69315        -3.10921
   C       -9.25823       -23.10528        -4.31215
   C      -10.38279       -23.90612        -4.26689
   C      -10.96551       -24.31076        -3.05335
   C      -10.39542       -23.89423        -1.85758
   C       -9.26678       -23.09317        -1.90192
   C      -12.12593       -25.15286        -3.32542
   C      -12.96792       -25.69103        -2.39933
   C      -12.84045       -25.50449        -1.00333
   N      -12.78932       -25.38385         0.13576
   C      -14.08849       -26.49668        -2.70843
   N      -15.01047       -27.15336        -2.89039
   C      -12.22834       -25.29521        -4.77959
   C      -13.07850       -26.00660        -5.52316
   C      -11.13785       -24.47677        -5.40152
   O      -10.93374       -24.32709        -6.57933
   F       -6.16047       -23.73619        -3.83252
   F       -5.07124       -22.18503        -2.81826
   F       -6.34781       -23.50726        -1.70481
   H       -2.75250        -1.94832         6.24626
   H       -2.85240        -2.14320         3.80636
   H       -5.97569        -5.07329         4.09376
   H       -5.72240        -4.60374        10.38775
   H       -6.82148        -5.68079         9.37616
   H       -2.96045        -3.99626        -0.22146
   H       -4.47621        -9.26995        -2.99808
   H       -5.92842       -15.57202        -4.80278
   H       -7.05543       -21.56375        -5.27347
   H       -8.84892       -22.83346        -5.27159
   H      -10.80357       -24.18313        -0.90326
   H       -8.81939       -22.77390        -0.97238
   H      -13.86534       -26.61900        -5.11981
   H      -12.97382       -25.97370        -6.59645
*
