# ORCA input file
# SCF done       -144.127959943700          0.000689156311
! CAM-B3LYP def2-SVP def2/J RIJCOSX Grid4 TightSCF
%maxcore 5000
%tddft
    Mode sTDDFT
    Ethresh 5.0
    maxcore 5000
end

%pal
  nprocs 6
  end
* xyz 0 1
   C       -6.35947        -1.43947         5.14384
   C       -7.39832        -1.94496         4.42400
   C       -6.99142        -2.91242         3.49127
   C       -5.63538        -3.13811         3.50876
   S       -4.85520        -2.13358         4.70001
   C       -4.88355        -4.04749         2.71434
   C       -3.52328        -4.28224         2.76166
   C       -3.13031        -5.25966         1.84553
   C       -4.20325        -5.76867         1.09350
   S       -5.69175        -5.04358         1.51399
   C       -3.71688        -6.76502         0.21241
   C       -2.32534        -6.88785         0.41262
   C       -1.91262        -5.93907         1.43557
   C       -0.64907        -5.72913         1.90460
   C       -0.36469        -4.77273         2.90193
   N       -0.12659        -3.99560         3.71043
   C        0.45965        -6.45365         1.41899
   N        1.36292        -7.03962         1.02446
   C       -1.75091        -7.86555        -0.38934
   C       -2.69611        -8.48023        -1.20064
   S       -4.31781        -7.83620        -0.97468
   C       -2.50590        -9.52171        -2.12355
   C       -3.50414       -10.07444        -2.93202
   C       -3.04165       -11.15696        -3.75918
   N       -3.90175       -11.81593        -4.55443
   C       -5.14220       -11.41265        -4.54182
   C       -6.19533       -12.23599        -5.32003
   O       -6.42534       -13.39399        -5.17654
   C       -6.87177       -11.06624        -5.86577
   C       -7.67155       -10.63493        -4.82984
   C       -7.01263        -9.73623        -3.86597
   O       -7.46330        -8.90979        -3.12100
   C       -5.58573       -10.25995        -3.78879
   N       -4.76387        -9.63895        -2.97709
   C       -1.68244       -11.42848        -3.58337
   S       -1.00364       -10.34470        -2.39737
   C       -0.93138       -12.43998        -4.21400
   C       -1.37376       -13.28039        -5.22694
   C       -0.39363       -14.19041        -5.60445
   C        0.80136       -14.05517        -4.87105
   S        0.72515       -12.78583        -3.73140
   C        1.70929       -15.05169        -5.30180
   C        1.09567       -15.81786        -6.30728
   C       -0.23704       -15.28942        -6.54715
   C       -1.13909       -15.70753        -7.47978
   C       -2.38082       -15.06350        -7.67227
   N       -3.37921       -14.53244        -7.85967
   C       -0.87616       -16.79296        -8.34249
   N       -0.66627       -17.67559        -9.04357
   C        1.91586       -16.84231        -6.78572
   C        3.14197       -16.86301        -6.15230
   S        3.29222       -15.59187        -4.94852
   C        4.21815       -17.76792        -6.36843
   C        5.44067       -17.80243        -5.74099
   C        6.26390       -18.84296        -6.20104
   C        5.67096       -19.59249        -7.17007
   S        4.08937       -19.04544        -7.54633
   H       -6.38546        -0.69542         5.91482
   H       -8.41936        -1.63625         4.55711
   H       -7.66079        -3.43122         2.82820
   H       -2.86799        -3.76300         3.43766
   H       -0.71071        -8.13804        -0.40230
   H       -6.24698       -10.33959        -6.37579
   H       -8.37823       -11.31988        -4.37566
   H       -2.36698       -13.20958        -5.63063
   H        1.64696       -17.54761        -7.55133
   H        5.72521       -17.09995        -4.97767
   H        7.25499       -19.02905        -5.82864
   H        6.06900       -20.44053        -7.69068
*
