# ORCA input file
# SCF done       -194.649933288207          0.000946618470
! CAM-B3LYP def2-SVP def2/J RIJCOSX Grid4 TightSCF
%maxcore 5000
%tddft
    Mode sTDDFT
    Ethresh 5.0
    maxcore 5000
end

%pal
  nprocs 6
  end
* xyz 0 1
   C       -2.93445         1.19684         3.31250
   N       -3.84220         0.67606         2.53378
   N       -3.56376        -0.25332         1.65647
   C       -2.34838        -0.73979         1.48467
   C       -1.27372        -0.24545         2.27746
   C       -1.59069         0.77192         3.23601
   N       -0.51639         1.16203         3.92255
   S        0.75342         0.32902         3.40647
   N        0.01718        -0.56622         2.29262
   C       -2.17978        -1.75956         0.49621
   C       -1.02262        -2.42902         0.15323
   C       -1.26049        -3.36860        -0.84907
   C       -2.60930        -3.39779        -1.26043
   S       -3.57886        -2.27632        -0.41727
   C       -2.75651        -4.38817        -2.26850
   C       -1.49279        -4.98079        -2.48340
   C       -0.51302        -4.35248        -1.60874
   C        0.82106        -4.62553        -1.53180
   C        1.43026        -5.60081        -2.34985
   N        1.92255        -6.38925        -3.02045
   C        1.68003        -3.94710        -0.64139
   N        2.38590        -3.40157         0.07878
   C       -1.53695        -5.97967        -3.43772
   C       -2.81752        -6.15355        -3.96827
   S       -3.98133        -5.03662        -3.25907
   C       -3.11331        -7.13699        -4.93867
   C       -4.26939        -7.44254        -5.65839
   C       -5.51287        -6.72692        -5.51436
   O       -5.69547        -5.81185        -4.72089
   C       -6.58805        -7.19087        -6.40798
   C       -6.41978        -8.27753        -7.30555
   C       -7.56504        -8.52866        -8.02527
   S       -8.84894        -7.45942        -7.62904
   C       -7.85417        -6.65783        -6.48164
   C       -8.41230        -5.50666        -5.70275
   F       -8.44450        -5.73800        -4.38778
   F       -7.73603        -4.37228        -5.90168
   F       -9.68204        -5.25886        -6.07303
   C       -7.78392        -9.58672        -9.06260
   F       -7.62857       -10.82280        -8.58126
   F       -9.03958        -9.52375        -9.54213
   F       -6.97387        -9.45350       -10.11621
   C       -5.15216        -9.01825        -7.42544
   O       -5.03191        -9.94987        -8.21162
   C       -4.10069        -8.54239        -6.56137
   C       -2.82078        -9.09813        -6.52126
   S       -1.82391        -8.22869        -5.38083
   C       -2.22586       -10.18958        -7.19271
   C       -0.91604       -10.60536        -6.94058
   C       -0.55361       -11.69923        -7.70362
   C       -1.59386       -12.12480        -8.55872
   S       -3.01040       -11.18996        -8.41312
   C       -1.12409       -13.24587        -9.29434
   C        0.20226       -13.52101        -8.90124
   C        0.60300       -12.56427        -7.88742
   C        1.79813       -12.49524        -7.23390
   C        2.85334       -13.39538        -7.49315
   N        3.71637       -14.12227        -7.69638
   C        2.05152       -11.52013        -6.24573
   N        2.25223       -10.73220        -5.43781
   C        0.74778       -14.61455        -9.57252
   C       -0.15705       -15.15775       -10.46195
   S       -1.69569       -14.32642       -10.48356
   C        0.02295       -16.28233       -11.32699
   N       -0.99280       -16.62638       -12.09725
   N       -0.94825       -17.63666       -12.92679
   C        0.11020       -18.38790       -13.05733
   C        1.27079       -18.13491       -12.29509
   C        1.23378       -17.02957       -11.38334
   N        2.37817       -16.88548       -10.72069
   S        3.39610       -18.03244       -11.20307
   N        2.44592       -18.76424       -12.26789
   H       -3.25673         1.95659         4.00705
   H       -0.07631        -2.22769         0.62203
   H       -0.69309        -6.56783        -3.75338
   H       -0.27972       -10.11655        -6.22375
   H        1.73842       -15.01058        -9.43960
   H        0.05521       -19.19946       -13.76573
*
