# ORCA input file
# SCF done       -151.911922678726          0.000314168356
! CAM-B3LYP def2-SVP def2/J RIJCOSX Grid4 TightSCF
%maxcore 5000
%tddft
    Mode sTDDFT
    Ethresh 5.0
    maxcore 5000
end

%pal
  nprocs 6
  end
* xyz 0 1
   C       -1.45696        -0.17783         1.21750
   N       -0.56634        -1.06132         0.82124
   C        0.02043        -1.75155         1.80516
   N       -0.25495        -1.58438         3.10446
   C       -1.16397        -0.67201         3.37090
   N       -1.80009         0.06503         2.47363
   C        1.00855        -2.72805         1.46069
   C        1.45727        -3.07118         0.20083
   C        2.44003        -4.05696         0.26430
   C        2.72573        -4.45316         1.58856
   S        1.78911        -3.61974         2.74343
   C        3.74190        -5.44026         1.55552
   C        4.09985        -5.66790         0.21147
   C        3.28488        -4.81579        -0.64306
   C        3.30096        -4.75297        -2.00460
   C        4.14991        -5.56084        -2.79248
   N        4.82462        -6.21358        -3.45000
   C        2.45737        -3.88292        -2.72874
   N        1.77801        -3.18067        -3.32823
   C        5.11453        -6.60645         0.07381
   C        5.53611        -7.10441         1.30082
   S        4.64149        -6.39922         2.64234
   C        6.55836        -8.05616         1.57631
   C        7.42756        -8.61389         0.60586
   C        8.44895        -9.57009         0.94347
   N        9.25718       -10.03774        -0.03307
   C        9.10652        -9.62820        -1.24841
   C        8.09535        -8.68740        -1.58257
   N        7.30304        -8.21486        -0.67896
   F        7.94259        -8.25870        -2.82792
   F        9.93190       -10.10411        -2.17069
   C        8.65686       -10.02351         2.26982
   C        7.80131        -9.45165         3.23582
   C        6.78143        -8.49642         2.89873
   N        6.10318        -8.10135         3.97762
   S        6.68121        -8.84676         5.27474
   N        7.81965        -9.70893         4.54485
   C        9.65060       -10.96534         2.65991
   C       10.51493       -11.70360         1.86060
   C       11.36192       -12.50854         2.61169
   C       11.15008       -12.38310         3.99943
   S        9.89174       -11.29327         4.37198
   C       12.07503       -13.21970         4.67226
   C       12.87134       -13.87597         3.70921
   C       12.44112       -13.45942         2.38472
   C       12.93321       -13.88054         1.18531
   C       13.98876       -14.81313         1.08991
   N       14.84686       -15.56787         0.99972
   C       12.41609       -13.42927        -0.04877
   N       12.00238       -13.08400        -1.06032
   C       13.82349       -14.71532         4.28412
   C       13.74733       -14.69077         5.66249
   S       12.49660       -13.63465         6.27092
   C       14.55929       -15.40567         6.59962
   N       15.51906       -16.21036         6.13043
   C       16.22574       -16.82783         7.05243
   N       16.05902       -16.71255         8.36143
   C       15.08293       -15.89413         8.72259
   N       14.30762       -15.22032         7.90128
   H       -1.95152         0.40136         0.44765
   H       -1.41155        -0.51065         4.41284
   H        1.07242        -2.60897        -0.68970
   H        5.54808        -6.92844        -0.85384
   H       10.50517       -11.63280         0.78960
   H       14.54344       -15.31771         3.76104
   H       17.01277       -17.48768         6.70910
   H       14.90730       -15.76735         9.78372
*
