# ORCA input file
# SCF done       -208.728603702590          0.000528686496
! CAM-B3LYP def2-SVP def2/J RIJCOSX Grid4 TightSCF
%maxcore 5000
%tddft
    Mode sTDDFT
    Ethresh 5.0
    maxcore 5000
end

%pal
  nprocs 6
  end
* xyz 0 1
   C       -0.81303        -4.90770        15.18824
   C       -0.05518        -3.79402        15.41751
   F        0.43409        -3.55233        16.64088
   C        0.22192        -2.88748        14.37437
   F        0.96881        -1.80422        14.62812
   C       -0.26350        -3.10724        13.11595
   C       -1.04786        -4.24598        12.84769
   C       -1.32917        -5.16330        13.90166
   C       -2.11683        -6.31109        13.65733
   C       -2.60666        -6.53406        12.39714
   C       -2.31328        -5.61903        11.34999
   C       -1.55889        -4.49999        11.55578
   C       -2.93395        -6.08348        10.09219
   O       -2.90444        -5.48961         9.03573
   C       -3.54591        -7.39767        10.41195
   C       -3.44011        -7.59881        11.85158
   C       -4.09084        -8.55037        12.59052
   C       -5.01745        -9.49354        12.09262
   N       -5.81082       -10.26765        11.79291
   C       -3.96669        -8.67425        13.99100
   N       -3.90115        -8.82724        15.12671
   C       -3.98827        -8.37531         9.56757
   C       -4.24989        -8.40602         8.16783
   C       -4.35026        -7.32371         7.28865
   C       -4.68409        -7.47696         5.95072
   C       -4.94983        -8.71606         5.36404
   C       -4.89876        -9.83055         6.23123
   C       -4.53565        -9.67479         7.60135
   N       -4.55737       -10.89353         8.15724
   N       -4.93122       -11.68334         7.18740
   N       -5.16146       -11.12875         6.03722
   C       -5.05823       -13.09541         7.36299
   C       -5.25116        -8.86462         3.97927
   C       -5.17713       -10.02207         3.19634
   C       -5.66604        -9.82831         1.85129
   N       -5.63546       -10.82806         0.96815
   C       -5.23100       -12.00105         1.38958
   C       -5.26347       -13.12372         0.42153
   O       -5.84773       -13.06462        -0.64127
   C       -4.56453       -14.34492         0.86029
   C       -4.07904       -14.51335         2.09421
   C       -4.18690       -13.49711         3.15633
   O       -3.88920       -13.73831         4.30898
   C       -4.71957       -12.18546         2.71687
   N       -4.65691       -11.19226         3.56992
   C       -6.09297        -8.51780         1.60879
   S       -5.86173        -7.55341         3.02869
   C       -6.68594        -7.97383         0.43197
   C       -6.71317        -6.60317         0.17227
   C       -7.25914        -6.07578        -0.98653
   C       -7.79963        -6.86003        -2.00992
   C       -7.82011        -8.25190        -1.75695
   C       -7.28540        -8.79432        -0.54821
   N       -7.50471       -10.11388        -0.57461
   N       -8.08749       -10.32860        -1.71003
   N       -8.31662        -9.28171        -2.46010
   C       -8.41975       -11.65292        -2.13223
   C       -8.35954        -6.22582        -3.16021
   C       -8.69335        -6.73217        -4.37615
   C       -9.67116        -5.98913        -5.22178
   O      -10.01866        -4.83892        -5.09184
   C      -10.16422        -6.98308        -6.19811
   C      -11.17457        -6.86239        -7.10779
   C      -11.50644        -7.97249        -7.91677
   C      -10.77908        -9.18909        -7.76729
   C      -11.12376       -10.29525        -8.56990
   C      -12.14082       -10.19835        -9.47744
   C      -12.85815        -8.99445        -9.62526
   C      -12.54777        -7.90364        -8.86265
   F      -13.85220        -8.92871       -10.52184
   F      -12.46778       -11.25258       -10.23713
   C       -9.72844        -9.28001        -6.82565
   C       -9.42448        -8.19197        -6.05222
   C       -8.40507        -7.98902        -5.02801
   C       -7.27387        -8.74068        -4.85817
   C       -7.04940        -9.97120        -5.50429
   N       -6.85059       -11.00028        -5.97337
   C       -6.19245        -8.32751        -4.05261
   N       -5.27884        -7.99833        -3.44141
   H       -1.01726        -5.59053        15.99811
   H       -0.04238        -2.40403        12.32834
   H       -2.30739        -6.98879        14.47360
   H       -1.35399        -3.81969        10.74312
   H       -4.17453        -9.34308        10.02163
   H       -4.15524        -6.33081         7.65769
   H       -4.72591        -6.59668         5.32493
   H       -4.51726       -13.38140         8.26155
   H       -4.64727       -13.58697         6.48026
   H       -6.10969       -13.36757         7.46795
   H       -4.49761       -15.12785         0.11688
   H       -3.60242       -15.43831         2.39003
   H       -6.27480        -5.93185         0.89661
   H       -7.23441        -5.00497        -1.12584
   H       -7.67627       -12.33172        -1.71357
   H       -8.40667       -11.69050        -3.21958
   H       -9.41187       -11.92912        -1.77105
   H       -8.64078        -5.18579        -3.01763
   H      -11.71742        -5.93466        -7.20654
   H      -10.58318       -11.22370        -8.47198
   H      -13.10656        -6.98935        -8.98730
   H       -9.19664       -10.21313        -6.72898
*
