# ORCA input file
# SCF done       -243.909875942212          0.000720224013
! CAM-B3LYP def2-SVP def2/J RIJCOSX Grid4 TightSCF
%maxcore 5000
%tddft
    Mode sTDDFT
    Ethresh 5.0
    maxcore 5000
end

%pal
  nprocs 6
  end
* xyz 0 1
   C       -9.07669         3.14823        -0.99693
   C      -10.16910         3.51391        -1.73175
   F      -10.54205         4.79915        -1.79057
   C      -10.91675         2.54794        -2.43531
   F      -11.98394         2.93556        -3.14704
   C      -10.56144         1.22907        -2.39385
   C       -9.44101         0.82036        -1.64439
   C       -8.68328         1.79596        -0.93366
   C       -7.55361         1.41045        -0.17722
   C       -7.19227         0.08884        -0.13138
   C       -7.95869        -0.87694        -0.83703
   C       -9.05327        -0.53571        -1.57846
   C       -7.38711        -2.22113        -0.62425
   O       -7.82064        -3.24509        -1.11070
   C       -6.24656        -2.03226         0.30692
   C       -6.09870        -0.59923         0.54596
   C       -5.08800         0.02360         1.22833
   C       -5.00554         1.42206         1.40632
   N       -4.87779         2.54713         1.59504
   C       -3.96886        -0.59177         1.83299
   N       -3.01424        -0.97500         2.34375
   C       -5.51237        -2.96024         0.98631
   C       -5.41570        -4.38449         0.91228
   C       -4.75014        -5.03753         1.98759
   O       -4.35932        -4.26234         3.02243
   C       -3.56968        -4.82192         4.04707
   C       -4.55647        -6.40798         1.92674
   C       -4.98728        -7.15312         0.83370
   C       -5.68985        -6.52257        -0.21569
   C       -5.86974        -5.15257        -0.16475
   O       -6.17851        -7.32441        -1.18748
   C       -6.82208        -6.72407        -2.29364
   C       -4.73205        -8.57995         0.80107
   C       -4.23995        -9.34120        -0.23745
   C       -3.72354        -8.75279        -1.47138
   O       -3.46875        -7.57853        -1.62597
   C       -3.47323        -9.76391        -2.52485
   C       -3.52837       -11.15799        -2.26744
   C       -3.21622       -11.89471        -3.38567
   S       -2.87976       -10.91844        -4.75966
   C       -3.14034        -9.49583        -3.82973
   C       -3.00230        -8.15444        -4.47946
   F       -1.96034        -7.45814        -4.01813
   F       -2.80993        -8.28568        -5.80496
   F       -4.09351        -7.39545        -4.33500
   C       -3.12793       -13.38495        -3.51275
   F       -4.29615       -13.99797        -3.32473
   F       -2.71353       -13.72800        -4.74618
   F       -2.24207       -13.92090        -2.66318
   C       -3.87196       -11.74079        -0.94573
   O       -3.92035       -12.94537        -0.79597
   C       -4.17632       -10.73825         0.07352
   C       -4.57950       -11.00504         1.37694
   S       -5.11350        -9.56102         2.17046
   C       -4.57808       -12.24966         2.11021
   C       -5.54777       -12.49083         3.11072
   O       -6.42262       -11.48451         3.35522
   C       -7.46799       -11.69103         4.27796
   C       -5.54467       -13.70500         3.76918
   C       -4.64919       -14.72578         3.43598
   C       -3.65182       -14.46395         2.46867
   C       -3.60866       -13.21759         1.86755
   O       -2.76037       -15.44763         2.20743
   C       -1.81498       -15.25296         1.17445
   C       -4.74041       -15.96685         4.15928
   C       -4.43793       -17.23022         3.77888
   C       -4.24810       -18.28074         4.82066
   O       -4.57345       -18.21629         5.98275
   C       -3.52842       -19.37382         4.13600
   C       -2.99074       -20.51036         4.66786
   C       -2.30217       -21.40656         3.82004
   C       -2.18415       -21.10532         2.43178
   C       -1.48700       -21.99934         1.59414
   C       -0.93471       -23.13809         2.10949
   C       -1.05319       -23.43532         3.48219
   C       -1.72307       -22.58906         4.32046
   F       -0.49991       -24.55806         3.96033
   F       -0.27161       -23.98557         1.31201
   C       -2.76065       -19.92605         1.90718
   C       -3.42654       -19.07329         2.74688
   C       -4.12363       -17.81745         2.49143
   C       -4.57719       -17.37914         1.27818
   C       -5.47583       -16.30016         1.14046
   N       -6.25359       -15.46697         1.01118
   C       -4.26878       -18.00988         0.05527
   N       -4.01763       -18.48919        -0.95655
   H       -8.51440         3.90024        -0.46571
   H      -11.14401         0.50204        -2.93767
   H       -7.00611         2.17319         0.35177
   H       -9.61462        -1.29150        -2.10664
   H       -4.87491        -2.55990         1.76597
   H       -3.30467        -3.98733         4.69373
   H       -2.65793        -5.27299         3.64635
   H       -4.12886        -5.56632         4.62204
   H       -4.03847        -6.92834         2.71694
   H       -6.37129        -4.64711        -0.96934
   H       -7.16126        -7.55115        -2.91469
   H       -6.12264        -6.10789        -2.86356
   H       -7.67986        -6.12287        -1.98130
   H       -8.05469       -10.77420         4.26244
   H       -7.08240       -11.85704         5.28820
   H       -8.09899       -12.53270         3.97986
   H       -6.27895       -13.91519         4.53009
   H       -2.82011       -12.98928         1.17428
   H       -1.31633       -16.21346         1.05252
   H       -1.07467       -14.49646         1.44979
   H       -2.30052       -14.96974         0.23644
   H       -5.05877       -15.87494         5.19448
   H       -3.08559       -20.72180         5.72211
   H       -1.38983       -21.78867         0.54058
   H       -1.80472       -22.83074         5.36861
   H       -2.65278       -19.71885         0.85435
*
