# ORCA input file
# SCF done       -197.264092874367          0.000495204395
! CAM-B3LYP def2-SVP def2/J RIJCOSX Grid4 TightSCF
%maxcore 5000
%tddft
    Mode sTDDFT
    Ethresh 5.0
    maxcore 5000
end

%pal
  nprocs 6
  end
* xyz 0 1
   C       -0.01021        -2.73886         2.34967
   O        0.40041        -3.63660         1.64238
   C        0.81782        -1.63058         2.87423
   C        0.03473        -0.79103         3.68155
   C        0.61559         0.32465         4.26835
   C        1.96042         0.57609         4.04128
   C        2.71519        -0.27309         3.24315
   C        2.15685        -1.39330         2.64376
  Br        4.55507         0.11067         2.96369
   C       -1.32485        -1.32651         3.72798
   C       -2.33585        -0.80744         4.49537
   C       -2.20061         0.34054         5.30559
   N       -2.16512         1.26816         5.98095
   C       -3.64257        -1.32401         4.63139
   N       -4.72030        -1.67254         4.82294
   C       -1.37271        -2.49603         2.86480
   C       -2.53569        -3.16748         2.57092
   C       -2.79590        -4.28417         1.76247
   C       -1.97631        -5.14041         1.02652
   C       -2.66258        -6.12310         0.33827
   C       -4.05701        -6.02961         0.55037
   S       -4.48992        -4.74734         1.59415
   C       -4.84306        -6.97282        -0.14014
   C       -4.12818        -7.87579        -0.95371
  Si       -2.28595        -7.54444        -0.82589
   C       -1.51679        -6.98851        -2.43821
   C       -1.34910        -8.93667         0.00277
   C       -4.99010        -8.73433        -1.61545
   C       -6.33632        -8.51737        -1.32696
   S       -6.54664        -7.21180        -0.18717
   C       -7.45219        -9.20740        -1.86273
   C       -8.76945        -8.90816        -1.44211
   C       -9.92496        -9.57211        -1.98588
   N      -11.14164        -9.25060        -1.53563
   C      -11.28048        -8.33297        -0.60934
   C      -10.13178        -7.66577        -0.07508
   N       -8.93034        -7.97140        -0.50172
   C      -10.28012        -6.67190         0.92374
   N      -10.43423        -5.87416         1.73081
   C      -12.57929        -8.01449        -0.14175
   N      -13.61660        -7.73740         0.25665
   C       -9.83077       -10.55982        -2.99499
   C       -8.51294       -10.87396        -3.40913
   C       -7.34971       -10.21750        -2.85074
   N       -6.22234       -10.67862        -3.39156
   S       -6.57277       -11.80818        -4.47665
   N       -8.17032       -11.77821        -4.32611
   C      -10.99059       -11.16625        -3.53696
   C      -11.05157       -12.11274        -4.55868
   C      -12.33827       -12.51482        -4.87579
   C      -13.28571       -11.85490        -4.06607
   S      -12.58175       -10.75445        -2.94752
   C      -14.62967       -12.20044        -4.30592
   C      -14.84371       -13.16339        -5.31429
  Si      -13.20456       -13.66454        -6.07719
   C      -13.07802       -13.11468        -7.86021
   C      -12.77784       -15.46748        -5.80839
   C      -16.19276       -13.39782        -5.50424
   C      -17.02351       -12.65182        -4.66756
   S      -16.08030       -11.64538        -3.58780
   C      -18.42300       -12.66224        -4.54678
   C      -19.36808       -13.14695        -5.41044
   C      -20.71621       -13.47171        -4.87916
   O      -21.16228       -13.18145        -3.79382
   C      -21.36754       -14.27138        -5.94257
   C      -20.52913       -14.31859        -7.07091
   C      -19.33814       -13.51002        -6.80615
   C      -18.50868       -13.00132        -7.77476
   C      -18.58074       -13.35242        -9.13743
   N      -18.57262       -13.62254       -10.25351
   C      -17.53393       -12.01131        -7.54262
   N      -16.74617       -11.18462        -7.42395
   C      -20.92066       -15.04012        -8.18825
   C      -22.14173       -15.69758        -8.16333
   C      -22.95933       -15.62823        -7.04324
   C      -22.58691       -14.91459        -5.91127
  Br      -24.62693       -16.53813        -7.06020
   H        0.05182         0.99986         4.88999
   H        2.42591         1.44053         4.48931
   H        2.73585        -2.05755         2.02108
   H       -3.43307        -2.75947         3.02076
   H       -0.90886        -5.02341         1.00595
   H       -2.08590        -6.19272        -2.91542
   H       -1.44680        -7.80525        -3.15385
   H       -0.50723        -6.61166        -2.28740
   H       -1.81642        -9.25254         0.93382
   H       -0.32903        -8.64298         0.24192
   H       -1.28444        -9.81494        -0.63643
   H       -4.68053        -9.50422        -2.29758
   H      -10.16191       -12.47701        -5.03806
   H      -13.44642       -12.09944        -7.99805
   H      -13.66268       -13.75377        -8.51930
   H      -12.05253       -13.13832        -8.22353
   H      -12.87736       -15.76722        -4.76668
   H      -11.75360       -15.68293        -6.10550
   H      -13.41974       -16.12371        -6.39274
   H      -16.57637       -14.12561        -6.19741
   H      -18.82275       -12.30263        -3.60308
   H      -20.29720       -15.11021        -9.06472
   H      -22.46098       -16.26827        -9.02181
   H      -23.21910       -14.85902        -5.03875
*
