# ORCA input file
# SCF done       -159.127102140595          0.000988912025
! CAM-B3LYP def2-SVP def2/J RIJCOSX Grid4 TightSCF
%maxcore 5000
%tddft
    Mode sTDDFT
    Ethresh 5.0
    maxcore 5000
end

%pal
  nprocs 6
  end
* xyz 0 1
   C       10.32490        -1.71343       -10.79904
   S       10.68809        -2.92379        -9.64520
   C       10.86502        -1.74611        -8.37054
   C       10.64469        -0.46421        -8.86090
   C       10.33520        -0.45782       -10.25636
   C       10.07105         0.71364       -10.99267
   N        9.85851         1.66282       -11.59775
   C       10.71820         0.72155        -8.11659
   N       10.77257         1.70990        -7.53441
   C       11.20163        -2.19508        -7.06661
   C       11.32228        -1.39864        -5.97411
   C       11.69825        -1.89119        -4.69373
   C       11.78610        -1.10181        -3.56514
   O       12.18427        -1.61019        -2.35472
   C       12.27355        -2.96570        -2.27583
   C       12.15459        -3.78622        -3.43286
   C       12.26781        -5.10861        -3.15319
   S       12.52156        -5.36968        -1.46778
   C       12.46420        -3.68004        -1.13791
   O       11.94195        -3.25089        -4.66664
   C       11.52785         0.30568        -3.55127
   C       11.22651         1.05672        -2.46237
   C       10.83726         0.62375        -1.15742
   C       11.08213         1.45771        -0.04176
   C       10.78392         1.06244         1.31735
   N       11.15863         1.85835         2.32153
   C       11.75070         3.00371         2.07343
   C       11.97784         3.42735         0.72651
   N       11.65451         2.65059        -0.27618
   C       12.55077         4.69875         0.47307
   N       13.01119         5.73647         0.32036
   C       12.11579         3.81628         3.17350
   N       12.38828         4.48445         4.06415
   C       10.15279        -0.17522         1.61770
   C        9.84218        -0.96393         0.48264
   C       10.15209        -0.57438        -0.86920
   N        9.69334        -1.46757        -1.74986
   S        8.98939        -2.67846        -0.96914
   N        9.20869        -2.13445         0.52526
   C        9.87159        -0.68322         2.91358
   S        9.52015        -2.40023         3.03228
   C        9.40953        -2.34757         4.76219
   C        9.57627        -1.04996         5.20305
   C        9.83319        -0.09399         4.18590
   C        9.93224         1.20810         4.74491
   C        9.79482         1.23168         6.09388
   C        9.85018         2.41801         6.98239
   S        9.51132        -0.35634         6.78249
   C        9.15072        -3.46816         5.59310
   O        9.05137        -3.24959         6.91762
   C        8.81293        -4.42960         7.53183
   C        8.75570        -5.43533         6.59285
   C        8.97338        -4.82415         5.34224
   C        9.00476        -5.52083         4.03122
   F       10.17093        -5.35788         3.37645
   F        8.83287        -6.84299         4.16594
   F        8.04242        -5.10112         3.18735
   C        8.66295        -4.48292         8.96104
   C        8.74667        -3.41491         9.75124
   H       10.12176        -1.97623       -11.81846
   H       11.36668        -3.25830        -6.96312
   H       11.13258        -0.34320        -6.05669
   H       12.22514        -5.93337        -3.83298
   H       12.58689        -3.31575        -0.13915
   H       11.65612         0.82591        -4.48793
   H       11.28015         2.13242        -2.56916
   H       10.10697         2.09572         4.17155
   H        8.85010         2.68150         7.32971
   H       10.26972         3.26632         6.44651
   H       10.46196         2.21143         7.85910
   H        8.58267        -6.47712         6.76740
   H        8.47308        -5.46892         9.35937
   H        8.93461        -2.43533         9.34537
   H        8.62763        -3.49253        10.81695
*
