# ORCA input file
# SCF done       -147.705099399150          0.000568194668
! CAM-B3LYP def2-SVP def2/J RIJCOSX Grid4 TightSCF
%maxcore 5000
%tddft
    Mode sTDDFT
    Ethresh 5.0
    maxcore 5000
end

%pal
  nprocs 6
  end
* xyz 0 1
   C       14.48747        -4.35356        -1.66475
   S       12.84797        -4.85118        -1.62188
   C       12.29277        -3.22937        -1.29768
   C       13.37307        -2.35416        -1.23121
   C       14.62636        -3.01230        -1.44384
   C       15.85101        -2.31885        -1.42139
   N       16.83027        -1.72428        -1.39507
   C       13.33249        -0.97710        -0.98871
   N       13.37356         0.15568        -0.79474
   C       10.90447        -2.98552        -1.14618
   C       10.38368        -1.75582        -0.89224
   C        9.00170        -1.48230        -0.73233
   C        8.50363        -0.21660        -0.47200
   O        7.16201         0.02828        -0.30729
   C        6.34265        -1.05533        -0.43111
   C        6.85201        -2.35649        -0.70538
   C        5.87675        -3.29464        -0.79354
   S        4.31877        -2.60074        -0.54141
   C        4.99152        -1.03110        -0.31582
   O        8.18653        -2.59110        -0.85512
   C        9.31943         0.93911        -0.35659
   C        8.85753         2.19101        -0.09387
   C        9.72224         3.30241        -0.00841
   S       11.43855         3.14254        -0.24747
   C       11.70864         4.84251        -0.00729
   C       10.49934         5.49406         0.25473
   C        9.39648         4.63070         0.25267
   S        7.71489         5.05990         0.52413
   C        7.59948         6.78488         0.88065
   O        6.50120         7.22129         1.08965
   C        8.79344         7.71205         0.93122
   O        8.62979         8.86574         1.21688
   S       10.45449         7.22303         0.56458
   C       13.01570         5.36194        -0.10662
   S       13.34673         7.07591         0.01557
   C       15.05029         6.84779        -0.23824
   C       15.32716         5.50473        -0.39727
   C       14.19774         4.64996        -0.32882
   C       14.56828         3.28844        -0.49927
   C       15.90054         3.12276        -0.68605
   C       16.62813         1.84916        -0.89099
   S       16.79575         4.63880        -0.66834
   C       16.00540         7.89798        -0.28119
   O       17.28900         7.55509        -0.49516
   C       18.03736         8.68170        -0.50889
   C       17.22882         9.77553        -0.30014
   C       15.91794         9.27833        -0.15283
   C       14.70118        10.09312         0.09182
   F       14.08147         9.77402         1.24459
   F       14.98170        11.40042         0.16315
   F       13.77610         9.95630        -0.87841
   C       19.45745         8.60163        -0.72266
   C       20.10982         7.45840        -0.91994
   H       15.26719        -5.06583        -1.84944
   H       10.24887        -3.83854        -1.24176
   H       11.05863        -0.92419        -0.80083
   H        5.98298        -4.34082        -0.98969
   H        4.36256        -0.18973        -0.11357
   H       10.38201         0.82003        -0.49163
   H        7.80261         2.37050         0.05464
   H       13.88881         2.45750        -0.48521
   H       17.14623         1.85021        -1.84927
   H       15.93119         1.01536        -0.86943
   H       17.37756         1.70391        -0.11377
   H       17.52396        10.80349        -0.25698
   H       19.96997         9.55254        -0.71348
   H       19.59005         6.51537        -0.92917
   H       21.17309         7.43705        -1.07803
*
