# ORCA input file
# SCF done       -177.766237489895          0.000476567989
! CAM-B3LYP def2-SVP def2/J RIJCOSX Grid4 TightSCF
%maxcore 5000
%tddft
    Mode sTDDFT
    Ethresh 5.0
    maxcore 5000
end

%pal
  nprocs 6
  end
* xyz 0 1
   C       -0.62500        -0.41674         1.27057
   C       -0.07751        -1.67031         1.90778
   C        1.00857        -1.14783         2.90361
   C        0.99268         0.36773         3.16486
   C        0.67739         0.81336         4.37797
   O        1.44662         1.33105         2.27694
   C        0.96621         1.47126         0.92111
   C        0.62535         0.06008         0.49917
   C        0.50186        -0.63254        -0.81907
   C        0.38152        -1.94532        -0.64090
   C        0.44131        -2.58540         0.74088
   C       -0.32705        -3.90779         0.72431
   C        2.08148         2.10841         0.09785
   C        2.40862         3.52067         0.57313
   C        3.47164         4.19050        -0.30919
   C        4.80656         3.51924        -0.20917
   C        5.74449         3.77479         0.73393
   O        6.97654         3.12293         0.76495
   C        7.15264         2.18251        -0.20100
   C        6.15458         1.90752        -1.18245
   C        6.52046         0.93470        -2.05219
   S        8.09747         0.33647        -1.69171
   C        8.25761         1.41285        -0.35072
   O        4.97071         2.58466        -1.20836
   C        5.58633         4.74806         1.77262
   C        6.55807         5.05427         2.66018
   C        6.43215         6.04815         3.66363
   S        4.96514         6.95318         3.90933
   C        5.68522         7.92304         5.17680
   C        6.99332         7.52157         5.39711
   C        7.41073         6.48368         4.53873
   S        9.03128         5.77438         4.54904
   C        9.97716         7.20613         3.88746
   C       11.45999         6.90382         3.94342
   S        8.04706         8.20007         6.64475
   C        8.15109         6.75441         7.77478
   C        9.25439         6.98268         8.78642
   C        4.86602         8.90532         5.78740
   C        5.28030         9.92976         6.57937
   C        4.43313        10.88391         7.20002
   C        3.07381        10.84598         7.25538
   C        2.26592        11.82176         7.87521
   S        2.94904        13.27012         8.61257
   C        1.38438        13.81379         9.05545
   C        0.38571        12.91305         8.65449
   C        0.87848        11.80037         7.99278
   C       -0.90456        13.47457         9.08696
   O       -2.01716        13.02394         8.94599
   C       -0.54240        14.77826         9.76387
   C        0.83504        14.93046         9.71642
   C       -1.53447        15.59918        10.30533
   C       -1.32761        16.81769        10.91195
   C       -2.35244        17.59515        11.44083
   C       -2.17386        18.83024        12.03197
   C       -3.17244        19.65624        12.59187
   C       -2.70933        20.83305        13.10212
   C       -1.31314        21.00303        12.96908
   S       -0.60825        19.60793        12.17858
   C       -0.54838        22.07942        13.36778
   C       -0.99545        23.26103        14.01709
   C       -0.01626        24.15641        14.28274
   C        1.29044        23.74713        13.85845
   S        1.18150        22.14723        13.10712
   C        2.44370        24.42065        13.97936
   H       -0.96522         0.29768         2.02010
   H       -1.45389        -0.61091         0.58871
   H       -0.83812        -2.21778         2.46890
   H        2.01292        -1.43522         2.58101
   H        0.85152        -1.61878         3.87424
   H        0.43070         0.14763         5.18378
   H        0.69116         1.86618         4.59730
   H        0.08844         2.13587         0.93351
   H        1.49916        -0.45581         0.90736
   H        0.47357        -0.13652        -1.77443
   H        0.25205        -2.62585        -1.46862
   H        1.49703        -2.82378         0.93196
   H       -1.38221        -3.72942         0.52775
   H       -0.23376        -4.41642         1.68136
   H        0.06021        -4.56627        -0.05024
   H        2.96905         1.47799         0.16673
   H        1.76137         2.13298        -0.94576
   H        2.75234         3.47762         1.60684
   H        1.50160         4.12797         0.54227
   H        3.56109         5.24272        -0.04137
   H        3.15548         4.12556        -1.35241
   H        5.96277         0.54105        -2.87580
   H        9.14829         1.41382         0.24145
   H        4.63700         5.25707         1.82745
   H        7.50935         4.54304         2.61923
   H        9.72410         8.07283         4.49689
   H        9.63825         7.36168         2.86235
   H       11.77499         6.73799         4.97117
   H       12.02128         7.74230         3.53640
   H       11.69145         6.01276         3.36365
   H        8.34664         5.87429         7.16414
   H        7.17705         6.66392         8.25722
   H       10.21556         7.07029         8.28517
   H        9.29612         6.14512         9.47944
   H        9.07426         7.89538         9.35065
   H        3.81553         8.81569         5.54369
   H        6.33937        10.05818         6.74535
   H        4.93068        11.71357         7.68744
   H        2.53483        10.01805         6.81519
   H        0.27600        10.99784         7.60675
   H        1.40025        15.75300        10.11373
   H       -2.54726        15.22342        10.22192
   H       -0.31983        17.20565        10.98468
   H       -3.36590        17.21773        11.39053
   H       -4.20571        19.35604        12.60136
   H       -3.33223        21.57780        13.56401
   H       -2.03190        23.40556        14.26588
   H       -0.16410        25.10488        14.76775
   H        2.46566        25.39164        14.44171
   H        3.37394        24.01881        13.62201
*
