# ORCA input file
# SCF done       -146.020943593164          0.000187515476
! CAM-B3LYP def2-SVP def2/J RIJCOSX Grid4 TightSCF
%maxcore 5000
%tddft
    Mode sTDDFT
    Ethresh 5.0
    maxcore 5000
end

%pal
  nprocs 6
  end
* xyz 0 1
   C        2.36990       -18.38185         1.84181
   C        1.25046       -18.79373         1.17932
   C        0.71509       -20.19359         1.13406
   C        1.61330       -21.22670         1.80109
   C        0.61413       -17.72377         0.51396
   C        1.24574       -16.51301         0.67027
   S        2.66441       -16.69944         1.66745
   C        0.91373       -15.22778         0.15647
   C       -0.15126       -14.96273        -0.63466
   C       -0.48426       -13.68638        -1.15194
   S        0.47738       -12.25239        -0.80820
   C       -0.57343       -11.28818        -1.75829
   C       -1.61202       -12.04228        -2.30990
   C       -1.56443       -13.38851        -1.97020
   C       -2.45105       -11.13253        -3.10388
   O       -3.44808       -11.40666        -3.73293
   C       -1.78539        -9.77812        -2.95331
   C       -0.67796        -9.92832        -2.14353
   C       -2.23667        -8.58768        -3.55336
   C       -3.33871        -8.53987        -4.36200
   C       -3.82705        -7.38143        -5.00142
   C       -4.93664        -7.38358        -5.84132
   O       -5.37613        -6.24301        -6.48191
   C       -4.66929        -5.10877        -6.22830
   C       -3.54029        -5.10362        -5.35906
   C       -2.97751        -3.87570        -5.23541
   S       -3.81867        -2.70519        -6.18137
   C       -4.94030        -3.88514        -6.74736
   O       -3.10470        -6.23338        -4.74052
   C       -5.70546        -8.53727        -6.12028
   C       -6.75665        -8.56500        -6.99128
   C       -7.51329        -9.72260        -7.26004
   S       -8.78310        -9.66970        -8.47879
   C       -9.14649       -11.32181        -8.21723
   C       -8.32901       -11.87882        -7.22536
   C       -7.41331       -10.99296        -6.68919
   C       -8.73055       -13.29281        -7.07427
   O       -8.29660       -14.12994        -6.32185
   C       -9.83373       -13.48090        -8.08826
   C      -10.04710       -12.28551        -8.73756
   C      -10.44318       -14.74435        -8.23508
   C      -11.38877       -15.08131        -9.15124
   C      -11.95517       -16.37008        -9.26536
   S      -11.55700       -17.69060        -8.18110
   C      -12.59751       -18.78762        -8.98586
   C      -13.23635       -18.19519       -10.04864
   C      -12.86819       -16.82312       -10.19727
   S      -13.66591       -16.07505       -11.53766
   C      -14.47845       -17.59608       -11.90328
   C      -15.37286       -17.57547       -13.05960
   O      -15.59311       -16.54336       -13.65573
   C      -15.96299       -18.90327       -13.48569
   C      -14.90688       -19.73105       -14.22094
   C      -14.16280       -18.60441       -11.04262
   H        3.05149       -18.96378         2.42830
   H        0.56065       -20.46753         0.08613
   H       -0.26803       -20.20187         1.61555
   H        2.59536       -21.23959         1.33379
   H        1.17476       -22.21727         1.70516
   H        1.73313       -21.00769         2.85951
   H       -0.28442       -17.85075        -0.06268
   H        1.57849       -14.41853         0.43059
   H       -0.82357       -15.76063        -0.91848
   H       -2.27310       -14.12847        -2.29532
   H       -0.00091        -9.14613        -1.85211
   H       -1.67008        -7.68576        -3.36041
   H       -3.86760        -9.46016        -4.53068
   H       -2.12732        -3.59501        -4.65017
   H       -5.72509        -3.61319        -7.42140
   H       -5.43183        -9.44486        -5.61300
   H       -7.02800        -7.66334        -7.52164
   H       -6.70558       -11.24440        -5.92116
   H      -10.76997       -12.09640        -9.50969
   H      -10.08931       -15.50278        -7.54568
   H      -11.74866       -14.35286        -9.86551
   H      -12.67957       -19.79736        -8.63749
   H      -16.79782       -18.69960       -14.15765
   H      -16.33170       -19.44744       -12.61570
   H      -14.54782       -19.18926       -15.09271
   H      -15.33723       -20.67273       -14.55313
   H      -14.05815       -19.94413       -13.57511
   H      -14.56501       -19.59955       -11.09586
*
