# ORCA input file
# SCF done       -141.816440325106          0.000459293513
! CAM-B3LYP def2-SVP def2/J RIJCOSX Grid4 TightSCF
%maxcore 5000
%tddft
    Mode sTDDFT
    Ethresh 5.0
    maxcore 5000
end

%pal
  nprocs 6
  end
* xyz 0 1
   C       -1.16476         2.33024         0.69518
   O       -2.20912         1.58893         1.08255
   C       -2.23184         1.60218         2.42765
   C       -1.21032         2.34709         2.91712
   C       -0.49130         2.83878         1.78292
   C        0.67155         3.67700         1.83140
   C        1.32935         4.14745         0.74950
   C        2.48678         4.98226         0.75972
   C        3.14019         5.42960         1.86223
   C        4.28855         6.25816         1.84852
   S        5.00131         6.73485         3.38283
   C        6.21861         7.62779         2.57542
   C        6.07407         7.55682         1.18390
   C        4.99517         6.79125         0.77276
   C        7.16768         8.35204         0.58388
   O        7.38984         8.53848        -0.58903
   C        7.94233         8.87446         1.77111
   C        7.33530         8.41595         2.92736
   C        9.09064         9.67948         1.72384
   C        9.69339        10.12360         0.57528
   C       10.85466        10.90752         0.59727
   C       11.61726        11.38286         1.67068
   C       12.71602        12.11394         1.15311
   C       12.63632        12.10239        -0.29751
   O       13.34439        12.58967        -1.15138
   N       11.48545        11.35588        -0.54629
   C       13.46307        12.56185         2.23080
   O       12.86947        12.14607         3.39116
   C       11.72159        11.40889         3.10783
   O       11.04180        10.94206         3.98657
   C       14.64573        13.30194         2.27932
   S       15.37914        13.70553         3.82323
   C       16.65825        14.50352         3.01000
   C       16.51092        14.45623         1.60465
   C       15.38263        13.78431         1.18918
   C       17.66886        15.16537         1.02600
   O       17.94247        15.36416        -0.13182
   C       18.47777        15.60797         2.22444
   C       17.82478        15.18842         3.37921
   C       19.67264        16.30732         2.06349
   C       20.48677        16.74166         3.08920
   C       21.68002        17.42255         2.89128
   C       22.50638        17.85782         3.91200
   C       23.73204        18.54359         3.77987
   C       24.33564        18.84975         4.96501
   C       23.61305        18.42062         6.09942
   S       22.14071        17.61134         5.60747
   C       23.94651        18.57864         7.42994
   C       25.10275        19.21313         7.95862
   C       25.16368        19.22244         9.31033
   C       24.05051        18.59066         9.95596
   S       22.93053        17.98743         8.72348
   C       23.83352        18.44710        11.27139
   H       -0.99833         2.42442        -0.35918
   H       -3.01449         1.05132         2.91032
   H       -0.98136         2.53517         3.94589
   H        1.01053         3.92793         2.82643
   H        0.95742         3.87884        -0.22986
   H        2.86202         5.27187        -0.21204
   H        2.78567         5.15004         2.84431
   H        4.72608         6.62171        -0.25327
   H        7.66627         8.62734         3.92774
   H        9.52451         9.95598         2.67722
   H        9.27650         9.86273        -0.38684
   H       11.15362        11.16233        -1.47884
   H       15.07112        13.62408         0.17140
   H       18.15078        15.35263         4.38948
   H       19.96646        16.50827         1.04053
   H       20.19146        16.54255         4.11134
   H       21.99869        17.63045         1.87805
   H       24.13402        18.79079         2.81307
   H       25.27338        19.36875         5.04846
   H       25.85079        19.64161         7.31562
   H       25.96039        19.65606         9.88797
   H       24.53854        18.82805        11.98895
   H       22.95749        17.95253        11.64914
*
