# ORCA input file
# SCF done       -163.603840751850          0.000485740437
! CAM-B3LYP def2-SVP def2/J RIJCOSX Grid4 TightSCF
%maxcore 5000
%tddft
    Mode sTDDFT
    Ethresh 5.0
    maxcore 5000
end

%pal
  nprocs 6
  end
* xyz 0 1
   C        3.57417        -4.18636       -10.80216
   O        4.14857        -4.08909       -12.00532
   C        4.18281        -2.78140       -12.32262
   C        3.63506        -2.02914       -11.33656
   C        3.22530        -2.94575       -10.31752
   C        2.58962        -2.67935        -9.06181
   C        2.25722        -1.45326        -8.60113
   C        1.62085        -1.24657        -7.34956
   C        1.28214        -0.02037        -6.87265
   C        0.62317         0.17474        -5.62660
   C        0.31008         1.41356        -5.09046
   O       -0.36336         1.52871        -3.89102
   C       -0.48963         0.39049        -3.16236
   C       -0.12932        -0.87793        -3.69858
   C       -0.31590        -1.89324        -2.81812
   S       -0.93151        -1.31194        -1.31871
   C       -0.93352         0.31618        -1.88112
   O        0.34293        -0.99941        -4.96642
   C        0.60536         2.65455        -5.71539
   C        0.62214         3.89555        -5.14423
   C        0.64788         4.27400        -3.77756
   C        1.14470         3.48314        -2.71262
   C        1.02204         3.88283        -1.33482
   N        1.34281         3.01860        -0.36794
   C        1.84026         1.84107        -0.68248
   C        2.13545         1.52551        -2.04314
   N        1.77922         2.34173        -3.00813
   C        2.76620         0.30680        -2.38810
   N        3.23269        -0.70518        -2.65776
   C        2.08154         0.89076         0.33567
   N        2.28649         0.08849         1.12878
   C        0.51485         5.16542        -0.95090
   C        0.15942         6.01292        -2.03441
   C        0.22890         5.57667        -3.40791
   N       -0.16807         6.52574        -4.25166
   S       -0.57447         7.84231        -3.41798
   N       -0.27517         7.26177        -1.94181
   C        0.40179         5.45597         0.41257
   C       -0.15829         6.52437         1.08583
   C       -0.20212         6.59438         2.50002
   C       -0.86503         7.67856         2.99725
   C       -1.38208         8.51536         1.99038
   S       -0.96525         7.91398         0.40284
   C       -2.14249         9.66795         2.12481
   C       -2.56443        10.31689         3.30357
   C       -3.32774        11.42447         3.07760
   C       -3.54992        11.70093         1.70596
   S       -2.74055        10.50663         0.71388
   C       -4.29072        12.72857         1.17607
   C       -4.47473        12.90939        -0.20773
   O       -3.90925        12.06325        -1.09000
   C       -4.24578        12.44936        -2.34387
   C       -5.04761        13.57167        -2.28050
   C       -5.19830        13.87224        -0.91774
   C       -5.97187        14.98858        -0.32567
   F       -5.20402        15.82547         0.40398
   F       -6.57994        15.74100        -1.25048
   F       -6.93676        14.56414         0.51748
   C       -3.74252        11.67060        -3.43964
   C       -3.98802        11.91456        -4.72568
   H        3.46127        -5.16634       -10.38205
   H        4.61655        -2.51838       -13.26698
   H        3.53233        -0.96426       -11.32684
   H        2.37038        -3.54896        -8.45590
   H        2.47420        -0.57697        -9.19627
   H        1.40155        -2.12012        -6.75229
   H        1.51722         0.85633        -7.45362
   H       -0.12309        -2.93528        -2.96128
   H       -1.27652         1.11170        -1.25206
   H        0.76125         2.61377        -6.78256
   H        0.61722         4.74201        -5.82058
   H        0.79648         4.67463         1.05265
   H        0.25197         5.83160         3.10815
   H       -0.99776         7.88031         4.04507
   H       -2.29746         9.95552         4.28050
   H       -3.74288        12.04984         3.84762
   H       -4.76728        13.43285         1.83939
   H       -5.47507        14.11233        -3.09901
   H       -3.12491        10.83483        -3.13927
   H       -4.60052        12.74038        -5.04229
   H       -3.57949        11.28937        -5.49906
*
