# ORCA input file
# SCF done       -155.767475742945          0.000762265646
! CAM-B3LYP def2-SVP def2/J RIJCOSX Grid4 TightSCF
%maxcore 5000
%tddft
    Mode sTDDFT
    Ethresh 5.0
    maxcore 5000
end

%pal
  nprocs 6
  end
* xyz 0 1
   C        6.87089        25.16765       -13.34532
   O        6.27461        25.48337       -14.50029
   C        6.57489        24.50874       -15.37843
   C        7.36024        23.56414       -14.80449
   C        7.56717        23.98525       -13.45322
   C        8.31469        23.35047       -12.40723
   C        8.98044        22.18339       -12.54228
   C        9.71697        21.50464       -11.52552
   C        9.89831        21.93021       -10.24986
   C       10.60102        21.21507        -9.24884
   S       10.73544        21.91927        -7.64213
   C       11.59067        20.54865        -7.07724
   C       11.76625        19.59763        -8.09000
   C       11.21613        19.96884        -9.30789
   C       12.48355        18.45919        -7.49435
   O       12.86124        17.43582        -8.01510
   C       12.67805        18.84626        -6.04587
   C       12.14355        20.10334        -5.85196
   C       13.29420        17.94776        -5.15963
   C       13.57969        18.18557        -3.84364
   C       14.17038        17.24315        -2.98552
   S       14.66517        17.72149        -1.36612
   C       15.26346        16.14901        -1.04769
   C       15.06046        15.29149        -2.14229
   C       14.46255        15.89537        -3.22716
   C       15.64501        13.98566        -1.78313
   O       15.71271        12.97928        -2.44720
   C       16.21644        14.19581        -0.40396
   C       15.95956        15.49698        -0.01027
   C       17.02835        13.19184         0.14007
   C       17.84634        13.28285         1.22734
   C       18.84369        12.32702         1.56912
   C       19.51958        11.48937         0.69379
   O       20.29522        10.43722         1.15062
   C       20.48347        10.36879         2.49577
   C       19.91214        11.32830         3.37993
   C       20.24346        11.11426         4.67729
   S       21.25882         9.73088         4.83949
   C       21.23520         9.44178         3.14027
   O       19.09086        12.31620         2.92600
   C       19.55574        11.56281        -0.72846
   C       19.31411        12.66082        -1.49999
   C       19.20363        12.60146        -2.89976
   C       18.73837        13.63828        -3.66998
   C       18.47395        13.60079        -5.09268
   C       18.82071        12.60826        -5.97285
   C       19.53040        11.43356        -5.64820
   N       20.11593        10.46020        -5.47656
   C       18.54388        12.64089        -7.35557
   N       18.36133        12.59912        -8.48866
   C       17.79701        14.84698        -5.45190
   C       17.72566        15.66484        -4.31132
   C       18.29497        14.95558        -3.15489
   O       18.35440        15.37951        -2.01311
   C       17.17048        16.92929        -4.37295
   C       16.66762        17.37212        -5.58541
   C       16.70439        16.56605        -6.72233
   C       17.27572        15.29483        -6.65277
   C       16.13225        17.05858        -8.01079
   H        6.74033        25.83841       -12.51898
   H        6.17378        24.60087       -16.36827
   H        7.74399        22.68270       -15.27386
   H        8.31113        23.87408       -11.46162
   H        8.95771        21.69000       -13.50431
   H       10.15670        20.56139       -11.81931
   H        9.47984        22.87639        -9.93605
   H       11.24831        19.36635       -10.19642
   H       12.12410        20.65736        -4.93177
   H       13.55616        16.99222        -5.59392
   H       13.36298        19.15749        -3.42226
   H       14.23685        15.40068        -4.15350
   H       16.25821        15.95102         0.91623
   H       17.06555        12.29152        -0.46088
   H       17.72270        14.08599         1.94036
   H       19.95084        11.68262         5.53499
   H       21.77018         8.61706         2.71858
   H       19.88421        10.64590        -1.20440
   H       19.11674        13.61255        -1.03238
   H       19.41218        11.65101        -3.37344
   H       17.15030        17.55439        -3.49286
   H       16.23442        18.35944        -5.65647
   H       17.30365        14.68196        -7.53930
   H       16.33448        18.11973        -8.14310
   H       15.04883        16.92702        -8.01663
   H       16.54094        16.50824        -8.85419
*
