# ORCA input file
# SCF done       -144.423376063450          0.000747765937
! CAM-B3LYP def2-SVP def2/J RIJCOSX Grid4 TightSCF
%maxcore 5000
%tddft
    Mode sTDDFT
    Ethresh 5.0
    maxcore 5000
end

%pal
  nprocs 6
  end
* xyz 0 1
   C       -2.58062         2.21123        -1.12683
   C       -2.37984         0.84145        -0.82748
   C       -2.20120         0.45945         0.48303
   C       -2.20036         1.41678         1.51131
   C       -2.38908         2.79286         1.19511
   C       -2.58362         3.16393        -0.15097
   N       -2.38333         3.73147         2.16265
   C       -2.20541         3.32065         3.39034
   C       -2.02602         1.95856         3.70630
   N       -2.02095         1.02561         2.79296
   C       -2.39101        -0.14017        -1.91652
   C       -1.39916        -1.16398        -2.00825
   C       -0.30231        -1.37267        -1.20827
   S        0.63277        -2.70403        -1.72815
   C       -0.41761        -3.01079        -3.03755
   C       -1.46156        -2.11354        -3.08861
   C       -2.50678        -2.04375        -4.06021
   N       -2.59409        -3.03631        -5.00600
   C       -3.44794        -1.02624        -3.95401
   C       -3.35365        -0.09816        -2.88521
   C       -4.50867        -0.87205        -4.93331
   C       -5.70852        -0.32751        -4.68059
   C       -6.78432        -0.12368        -5.62631
   C       -6.58437         0.13871        -7.02067
   C       -5.41345         0.36570        -7.70055
   S       -5.67105         0.67690        -9.36241
   C       -7.36072         0.51630        -9.19061
   C       -7.72794         0.24613        -7.89152
   C       -9.05676         0.12359        -7.38176
   N      -10.11864         0.19633        -8.25727
   C       -9.22169        -0.03178        -6.01204
   C       -8.08149        -0.16509        -5.18246
   C      -10.52116        -0.11459        -5.36923
   C      -11.62111         0.57334        -5.71304
   C      -12.89422         0.50010        -5.02208
   C      -13.39172        -0.70877        -4.43616
   C      -12.89080        -1.98333        -4.53040
   S      -13.84944        -3.12447        -3.69256
   C      -14.94994        -1.92114        -3.19187
   C      -14.60728        -0.67423        -3.66507
   C      -15.33009         0.54544        -3.48729
   N      -16.44046         0.54514        -2.67394
   C      -14.88453         1.67765        -4.16069
   C      -13.67182         1.62006        -4.89697
   C      -15.55935         2.95724        -4.09569
   C      -16.88527         3.15568        -3.99085
   C      -17.53615         4.44620        -3.89371
   C      -18.93643         4.50957        -4.12072
   C      -19.62958         5.67903        -4.03410
   C      -18.95615         6.87229        -3.69945
   C      -17.55227         6.82627        -3.46076
   C      -16.86578         5.60722        -3.56213
   N      -16.87650         7.94973        -3.12781
   C      -17.56590         9.05470        -3.04000
   C      -18.95466         9.09743        -3.27856
   N      -19.63728         8.03027        -3.60115
   H       -2.71444         2.49623        -2.16034
   H       -2.08579        -0.57815         0.75509
   H       -2.72716         4.20954        -0.37614
   H       -2.20094         4.08035         4.16096
   H       -1.88359         1.63614         4.72972
   H        0.01731        -0.80792        -0.35647
   H       -0.19868        -3.83344        -3.68876
   H       -1.75308        -3.54529        -5.21559
   H       -3.20712        -2.87406        -5.78708
   H       -4.09890         0.68153        -2.84103
   H       -4.30879        -1.24333        -5.93065
   H       -5.95830        -0.07206        -3.65843
   H       -4.41594         0.42273        -7.31678
   H       -7.98297         0.66937       -10.04961
   H       -9.91384        -0.04571        -9.21333
   H      -10.98798        -0.17841        -7.90563
   H       -8.26000        -0.32897        -4.12848
   H      -10.55215        -0.73692        -4.48331
   H      -11.55652         1.33089        -6.48370
   H      -12.03498        -2.32698        -5.07417
   H      -15.80389        -2.21208        -2.61312
   H      -16.47842        -0.19629        -1.99303
   H      -16.71536         1.45061        -2.32153
   H      -13.33496         2.53685        -5.36077
   H      -14.90826         3.81723        -4.19076
   H      -17.55530         2.30748        -4.04184
   H      -19.45489         3.59494        -4.37341
   H      -20.69362         5.72553        -4.20809
   H      -15.80716         5.61343        -3.35617
   H      -17.01726         9.94854        -2.77258
   H      -19.50882        10.02362        -3.20176
*
