# ORCA input file
# SCF done       -126.232620991816          0.000734609448
! CAM-B3LYP def2-SVP def2/J RIJCOSX Grid4 TightSCF
%maxcore 5000
%tddft
    Mode sTDDFT
    Ethresh 5.0
    maxcore 5000
end

%pal
  nprocs 6
  end
* xyz 0 1
   C       -5.42659        -3.50636         6.07762
   C       -6.66917        -4.03617         5.63899
   C       -7.44590        -4.74388         6.53563
   C       -7.02258        -4.93524         7.85879
   C       -5.77605        -4.39436         8.28495
   C       -4.99137        -3.67793         7.35720
   N       -5.34719        -4.56026         9.55132
   C       -6.12239        -5.23442        10.35908
   C       -7.35638        -5.77295         9.93849
   N       -7.80021        -5.62980         8.71973
   C       -7.10834        -3.83932         4.27740
   S       -8.59229        -4.55973         3.71957
   C       -8.37282        -3.88650         2.12752
   C       -7.21255        -3.14712         2.06020
   C       -6.50777        -3.12428         3.26561
   C       -9.29559        -4.12905         1.12344
   C      -10.12066        -4.37502         0.26639
   C      -11.06331        -4.68069        -0.70652
   C      -10.95992        -4.28926        -1.99781
   C      -11.89794        -4.61729        -3.01559
   S      -11.61588        -4.08129        -4.64978
   C      -13.07309        -4.86413        -5.20200
   C      -13.72351        -5.48963        -4.15592
   C      -13.06709        -5.35046        -2.93667
   C      -13.45881        -4.83637        -6.52935
   C      -13.78995        -4.82621        -7.69940
   C      -14.21800        -4.87188        -9.01700
   C      -13.62256        -4.19231       -10.02773
   C      -14.07283        -4.28182       -11.38064
   C      -13.53762        -3.58450       -12.43596
   O      -13.99924        -3.73395       -13.73387
   C      -15.02663        -4.60981       -13.90076
   C      -15.59106        -5.32211       -12.80462
   C      -16.60576        -6.14138       -13.17380
   S      -16.88992        -6.05578       -14.87308
   C      -15.62359        -4.90269       -15.08204
   O      -15.12628        -5.16882       -11.53530
   C      -12.47469        -2.63230       -12.32734
   C      -11.97443        -1.97398       -13.39510
   C      -10.92061        -0.98888       -13.37862
   C      -10.49850        -0.45018       -14.62466
   C       -9.51280         0.48562       -14.71068
   C       -8.87992         0.94980       -13.53826
   C       -9.29155         0.42425       -12.27958
   C      -10.30868        -0.54000       -12.22263
   N       -8.70833         0.84974       -11.13531
   C       -7.76731         1.74733       -11.24487
   C       -7.36063         2.26400       -12.49239
   N       -7.90415         1.87523       -13.61572
   H       -4.81410        -2.95887         5.37872
   H       -8.39609        -5.16488         6.24213
   H       -4.04756        -3.27646         7.69218
   H       -5.77199        -5.36201        11.37468
   H       -7.98466        -6.32984        10.62132
   H       -6.89601        -2.64528         1.16319
   H       -5.58244        -2.58967         3.38327
   H      -11.90316        -5.27670        -0.37400
   H      -10.10690        -3.69657        -2.30082
   H      -14.64526        -6.02714        -4.29184
   H      -13.43418        -5.77506        -2.01969
   H      -15.07697        -5.49798        -9.21977
   H      -12.77223        -3.56673        -9.81407
   H      -17.19637        -6.78269       -12.55401
   H      -15.39754        -4.51321       -16.05223
   H      -12.08486        -2.44987       -11.34095
   H      -12.39170        -2.19367       -14.36820
   H      -10.98246        -0.80442       -15.52379
   H       -9.19327         0.89257       -15.65748
   H      -10.58985        -0.90536       -11.24812
   H       -7.30731         2.08271       -10.32444
   H       -6.57745         3.00700       -12.56354
*
