# ORCA input file
# SCF done       -155.004007465327          0.000380578924
! CAM-B3LYP def2-SVP def2/J RIJCOSX Grid4 TightSCF
%maxcore 5000
%tddft
    Mode sTDDFT
    Ethresh 5.0
    maxcore 5000
end

%pal
  nprocs 6
  end
* xyz 0 1
   O       10.46072        12.72717        -0.37181
   C        9.24288        12.45659        -0.90644
   N        8.63056        13.51465        -1.34932
   C        9.48245        14.55493        -1.10053
   C       10.60937        14.04709        -0.49487
   C        9.15844        15.93109        -1.45845
   O        9.87409        16.87790        -1.26117
   C        8.76692        11.10831        -0.94428
   O        7.56465        10.83936        -1.47212
   C        7.36234         9.50439        -1.40286
   C        8.45924         8.89753        -0.81426
   C        9.36329         9.93044        -0.51742
   C       10.69502         9.78661         0.13110
   F       11.70112        10.22949        -0.64248
   F       10.78241        10.46443         1.28916
   F       10.97371         8.50823         0.41906
   C        6.16397         8.92018        -1.90029
   C        5.13473         9.63525        -2.41383
   C        3.96464         9.02857        -2.92693
   S        2.62861        10.04020        -3.54920
   C        1.79576         8.59365        -3.92306
   C        2.57013         7.47902        -3.55869
   N        3.74691         7.74296        -3.01477
   C        1.86315         6.20618        -3.89782
   C        0.59889         6.73355        -4.50860
   C        0.59176         8.13382        -4.49682
   S       -0.84024         8.78250        -5.18228
   C       -1.43556         7.16414        -5.50895
   C       -0.54095         6.19148        -5.08133
   C       -2.68705         7.00516        -6.15387
   C       -3.18800         5.81274        -6.56444
   C       -4.43054         5.65626        -7.22675
   O       -5.27124         6.68950        -7.43641
   C       -6.35743         6.22941        -8.10742
   C       -6.21662         4.86843        -8.34103
   C       -4.99087         4.50128        -7.77381
   C       -4.38512         3.14817        -7.75551
   F       -4.13982         2.70325        -6.50473
   F       -5.16282         2.22834        -8.33855
   F       -3.19492         3.09929        -8.39034
   C       -7.42891         7.08326        -8.45744
   C       -7.52407         8.39689        -8.10491
   C       -8.61266         9.20881        -8.45940
   C       -8.77726        10.51513        -8.07642
   C       -9.86659        11.36109        -8.41155
   C       -9.79292        12.60898        -7.88038
   C       -8.63874        12.83002        -7.08774
   S       -7.64373        11.38529        -7.05567
   C       -8.29262        13.97388        -6.40901
   C       -9.02152        15.19623        -6.35415
   C       -8.44531        16.15481        -5.59710
   C       -7.20520        15.76453        -4.98879
   S       -6.83051        14.09652        -5.45292
   C       -6.41735        16.49691        -4.19050
   H       11.50938        14.50432        -0.13834
   H        8.16911        16.02423        -1.93882
   H        8.59587         7.85394        -0.62097
   H        6.09717         7.84440        -1.85660
   H        5.18644        10.71385        -2.44851
   H        1.67167         5.60050        -3.01016
   H        2.43982         5.59736        -4.59624
   H       -0.72777         5.13885        -5.18484
   H       -3.25802         7.90399        -6.34115
   H       -2.62788         4.90291        -6.41498
   H       -6.90803         4.22762        -8.84770
   H       -8.21923         6.62078        -9.03116
   H       -6.73433         8.84082        -7.51333
   H       -9.39045         8.77387        -9.07398
   H      -10.66988        11.01141        -9.03610
   H      -10.53209        13.37501        -8.03156
   H       -9.95136        15.31751        -6.88098
   H       -8.84851        17.13902        -5.43714
   H       -6.68418        17.50663        -3.93285
   H       -5.50297        16.10522        -3.78423
*
