# ORCA input file
# SCF done       -170.204763226283          0.000982448170
! CAM-B3LYP def2-SVP def2/J RIJCOSX Grid4 TightSCF
%maxcore 5000
%tddft
    Mode sTDDFT
    Ethresh 5.0
    maxcore 5000
end

%pal
  nprocs 6
  end
* xyz 0 1
   C        5.91232         0.23456         6.09553
   C        5.95048        -0.75348         5.15871
   C        5.16161        -0.43632         4.00898
   C        4.53032         0.76060         4.09309
   S        4.90239         1.53469         5.58820
   C        5.31160        -1.50658         3.02199
   O        4.74426        -1.59674         1.94922
   C        6.29356        -2.44706         3.59644
   C        6.63723        -2.02439         4.93416
   C        7.36331        -2.63105         5.93476
   N        7.19935        -2.16317         7.30464
   O        6.06617        -2.07692         7.72157
   O        8.19943        -1.87930         7.91760
   N        8.28621        -3.70491         5.85165
   O        8.86951        -3.89243         4.79656
   O        8.44455        -4.37556         6.85220
   C        6.78232        -3.55087         2.91753
   C        6.40270        -4.12018         1.70734
   S        5.05803        -3.63550         0.66814
   C        5.39517        -4.92665        -0.39135
   C        6.51129        -5.69752         0.01294
   C        7.06891        -5.25131         1.18156
   C        6.70163        -6.76414        -0.99068
   O        7.52752        -7.63916        -1.02741
   C        5.59676        -6.52501        -1.99867
   C        4.86040        -5.42397        -1.59686
   C        5.44307        -7.35798        -3.11855
   C        4.45901        -7.19378        -4.05696
   C        4.27405        -8.01035        -5.17899
   S        2.95654        -7.69230        -6.30346
   C        3.34123        -9.03607        -7.35447
   C        4.46395        -9.70385        -6.84004
   C        4.96274        -9.12628        -5.64395
   O        6.03218        -9.80523        -5.19749
   C        6.22439       -10.81144        -6.09380
   N        7.29839       -11.70613        -5.88087
   O        7.43009       -12.59033        -6.70876
   O        8.00074       -11.53539        -4.90919
   C        5.30569       -10.80487        -7.11418
   C        2.58153        -9.31037        -8.49069
   S        2.96291       -10.66809        -9.55116
   C        1.63460       -10.27444       -10.56405
   C        0.93610        -9.13993       -10.09368
   C        1.46006        -8.60236        -8.94136
   C       -0.17583        -8.89624       -11.02919
   O       -1.01623        -8.03072       -11.00151
   C       -0.04644        -9.99259       -12.06020
   C        1.05538       -10.78288       -11.73289
   C       -0.95546       -10.07596       -13.10917
   C       -0.95498       -11.02049       -14.11826
   C       -1.90381       -11.03956       -15.12834
   C       -1.94518       -11.96146       -16.16155
   C       -2.89627       -12.01362       -17.20168
   C       -2.69804       -13.02882       -18.09238
   C       -1.57477       -13.83083       -17.79818
   S       -0.78063       -13.25273       -16.34886
   C       -1.10638       -14.92314       -18.50342
   C       -1.66323       -15.47936       -19.68797
   C       -0.99050       -16.55043       -20.16733
   C        0.15606       -16.92248       -19.39065
   S        0.31054       -15.81618       -18.01552
   C        1.01121       -17.93000       -19.61628
   H        6.39794         0.31796         7.04701
   H        3.88708         1.23668         3.38067
   H        7.62473        -4.06024         3.37177
   H        7.91907        -5.68928         1.67376
   H        4.01211        -5.00240        -2.10383
   H        6.15424        -8.16733        -3.21779
   H        3.75337        -6.38188        -3.94907
   H        5.26530       -11.49987        -7.92703
   H        1.07919        -7.74142        -8.42181
   H        1.40561       -11.63973       -12.27756
   H       -1.72826        -9.31642       -13.11414
   H       -0.18623       -11.78214       -14.12973
   H       -2.67810       -10.28306       -15.12211
   H       -3.69950       -11.30088       -17.26331
   H       -3.32681       -13.21510       -18.94395
   H       -2.54427       -15.06387       -20.14319
   H       -1.25893       -17.10194       -21.05043
   H        0.88265       -18.57907       -20.46445
   H        1.84484       -18.12153       -18.96579
*
