# ORCA input file
# SCF done       -154.853616212601          0.000453831679
! CAM-B3LYP def2-SVP def2/J RIJCOSX Grid4 TightSCF
%maxcore 5000
%tddft
    Mode sTDDFT
    Ethresh 5.0
    maxcore 5000
end

%pal
  nprocs 6
  end
* xyz 0 1
   C       -3.07975        -2.32825         5.95858
   O       -2.55444        -2.80200         4.83019
   C       -3.54178        -2.87162         3.90380
   C       -4.72181        -2.43156         4.45512
   C       -4.41483        -2.08038         5.79228
   C       -5.35934        -1.54253         6.80384
   F       -4.78676        -1.39940         8.00919
   F       -5.84292        -0.33290         6.46596
   F       -6.43199        -2.33363         6.97939
   C       -3.26624        -3.34360         2.57636
   C       -2.04816        -3.71787         2.15815
   C       -1.75738        -4.21231         0.82120
   C       -2.69323        -4.98519         0.16474
   C       -2.45769        -5.48728        -1.12262
   C       -1.23139        -5.24152        -1.72035
   C       -0.23682        -4.49119        -1.08491
   C       -0.51128        -3.93819         0.19243
   C        0.45417        -3.09098         0.80183
   C        1.64624        -2.84201         0.21044
   C        1.98735        -3.42640        -1.03936
   C        1.05111        -4.25629        -1.69895
   C        1.43154        -4.82050        -2.92708
   C        2.66665        -4.57500        -3.47550
   C        3.58164        -3.74858        -2.82253
   C        3.24264        -3.18411        -1.62066
   C       -3.49387        -6.26415        -1.77087
   C       -3.64160        -6.39066        -3.10138
   C       -4.65128        -7.16092        -3.75707
   S       -5.09922        -6.73875        -5.38389
   C       -6.27469        -8.01160        -5.47821
   C       -6.29339        -8.73190        -4.29603
   C       -5.38425        -8.25293        -3.32986
   S       -5.08523        -8.99510        -1.75812
   C       -5.66876       -10.66466        -1.82249
   O       -5.24837       -11.43009        -1.00031
   C       -6.78566       -11.10058        -2.74567
   O       -7.34095       -12.14811        -2.56714
   S       -7.41229       -10.07103        -4.03756
   C       -7.04000        -8.14430        -6.67451
   N       -7.94502        -9.13219        -6.92993
   C       -8.50555        -8.96579        -8.15509
   C       -9.51870        -9.83901        -8.67745
   C       -9.93293       -10.97005        -8.10727
   C       -7.94240        -7.80735        -8.71528
   C       -7.02052        -7.30647        -7.77930
   C       -8.23494        -7.21442        -9.99280
   S       -8.62246        -8.17030       -11.38899
   C       -8.77945        -6.77892       -12.37242
   C       -8.54046        -5.63106       -11.67424
   C       -8.22555        -5.87347       -10.31671
   S       -7.95082        -4.63394        -9.09582
   C       -8.44907        -3.07686        -9.76713
   O       -8.57556        -2.16918        -8.99213
   C       -8.59207        -2.80537       -11.25301
   O       -8.67717        -1.67006       -11.63229
   S       -8.59728        -4.06872       -12.48548
   H       -2.43801        -2.20644         6.80834
   H       -5.67841        -2.36571         3.98064
   H       -4.11718        -3.35150         1.91160
   H       -1.22631        -3.65888         2.85742
   H       -3.62760        -5.21842         0.65316
   H       -1.04516        -5.66533        -2.69286
   H        0.22081        -2.62396         1.74553
   H        2.36807        -2.19128         0.68298
   H        0.75641        -5.47165        -3.45910
   H        2.93429        -5.02698        -4.41931
   H        4.54912        -3.56115        -3.26377
   H        3.94000        -2.54479        -1.09846
   H       -4.21703        -6.71933        -1.10842
   H       -2.99856        -5.83389        -3.76970
   H       -8.17853        -9.88201        -6.30083
   H       -9.96104        -9.52151        -9.61075
   H       -9.52174       -11.35090        -7.18745
   H      -10.70605       -11.56610        -8.55741
   H       -6.39049        -6.44870        -7.89757
   H       -9.03895        -6.86704       -13.40720
*
