# ORCA input file
# SCF done       -152.650881157799          0.000534833724
! CAM-B3LYP def2-SVP def2/J RIJCOSX Grid4 TightSCF
%maxcore 5000
%tddft
    Mode sTDDFT
    Ethresh 5.0
    maxcore 5000
end

%pal
  nprocs 6
  end
* xyz 0 1
   C        0.87878         1.67451        -2.04419
   S        1.83525         0.27256        -2.30269
   C        3.03573         1.21782        -3.15013
   C        2.67204         2.54145        -3.20246
   C        1.44246         2.79519        -2.57101
   C        4.17681         0.62200        -3.66775
   C        5.16231         0.07178        -4.11467
   C        6.30709        -0.52103        -4.63880
   C        6.53161        -1.85136        -4.55702
   C        7.66220        -2.57156        -5.06381
   C        8.93418        -2.09326        -5.23269
   O        9.93574        -2.83925        -5.83627
   C        9.59147        -4.10873        -6.18604
   C        8.29021        -4.63388        -5.93556
   C        8.15471        -5.92008        -6.34122
   S        9.61728        -6.51361        -7.03812
   C       10.41651        -5.00666        -6.77740
   O        7.31095        -3.88178        -5.36439
   C        9.38957        -0.82959        -4.74369
   C       10.59205        -0.30336        -5.07581
   C       11.11623         0.91745        -4.57286
   S       12.68695         1.44748        -5.11152
   C       12.58931         2.88245        -4.12542
   C       11.39768         2.92211        -3.43118
   C       10.57628         1.82414        -3.68078
   C       13.62927         3.79708        -4.10976
   C       14.57314         4.56046        -4.12835
   C       15.67345         5.41477        -4.16488
   C       15.71434         6.58969        -3.50354
   C       16.77437         7.54856        -3.44575
   N       17.84335         7.67554        -4.28322
   C       18.20886         6.93866        -5.46316
   C       19.15110         5.78167        -5.13290
   N       18.62861         8.68472        -3.92459
   C       18.09567         9.23543        -2.84312
   C       16.90812         8.57149        -2.49720
   C       16.01897         8.85123        -1.33379
   C       16.33952         7.92970        -0.15479
   C       18.74338        10.38884        -2.15279
   C       19.81169        11.04258        -3.03524
   C       20.57711        12.08310        -2.29469
   C       20.64251        13.36508        -2.66099
   C       21.38438        14.39105        -1.97600
   S       20.99139        16.05103        -2.26712
   C       22.17793        16.61544        -1.13191
   C       22.86168        15.55096        -0.57026
   C       22.42038        14.29040        -1.06869
   O       23.00174        13.09058        -0.71290
   C       23.80501        12.51137        -1.73500
   C       24.29597        11.16039        -1.24328
   O       23.83931        15.78238         0.34068
   C       24.13934        14.80294         1.32800
   C       25.54525        14.24910         1.13393
   C       22.31586        18.03063        -0.92625
   C       23.24771        18.62603        -0.18486
   H       -0.04843         1.58414        -1.51378
   H        3.27561         3.29218        -3.68021
   H        0.99358         3.77058        -2.50958
   H        6.99607         0.13984        -5.14711
   H        5.75560        -2.48624        -4.14902
   H        7.29073        -6.54682        -6.27142
   H       11.43652        -4.87316        -7.07058
   H        8.74614        -0.32601        -4.04112
   H       11.21243        -0.83228        -5.78579
   H       11.14540         3.72890        -2.76574
   H        9.61194         1.69281        -3.22352
   H       16.50303         5.04810        -4.75103
   H       14.85416         6.85398        -2.90060
   H       18.72469         7.64403        -6.12026
   H       17.30408         6.58894        -5.96532
   H       20.06434         6.17190        -4.69113
   H       19.40387         5.23663        -6.03847
   H       18.69709         5.09369        -4.42293
   H       14.97326         8.71629        -1.62280
   H       16.15000         9.89022        -1.02456
   H       16.19287         6.88885        -0.43589
   H       15.69437         8.15591         0.69120
   H       17.37434         8.05865         0.15449
   H       19.20312        10.03596        -1.22367
   H       17.98428        11.12717        -1.88059
   H       19.33786        11.47174        -3.91892
   H       20.49226        10.25552        -3.37062
   H       21.09012        11.75034        -1.40325
   H       20.08413        13.70720        -3.52361
   H       24.65362        13.17614        -1.95534
   H       23.21686        12.39405        -2.65420
   H       24.94201        10.71085        -1.99201
   H       23.45149        10.50145        -1.06081
   H       24.84984        11.27624        -0.31521
   H       23.40247        13.99778         1.31609
   H       24.07832        15.32419         2.29189
   H       26.26612        15.06307         1.12494
   H       25.61563        13.71254         0.19229
   H       25.78622        13.56917         1.94677
   H       21.57421        18.62580        -1.44501
   H       24.00378        18.06332         0.33039
   H       23.26962        19.69681        -0.07897
*
