# ORCA input file
# SCF done       -134.442107052148          0.000655527083
! CAM-B3LYP def2-SVP def2/J RIJCOSX Grid4 TightSCF
%maxcore 5000
%tddft
    Mode sTDDFT
    Ethresh 5.0
    maxcore 5000
end

%pal
  nprocs 6
  end
* xyz 0 1
   C        0.81689         0.88206         4.34089
   S        1.77387         0.99025         5.79089
   C        3.03626         1.64771         4.84146
   C        2.65806         1.73643         3.52396
   N        1.39094         1.29210         3.27727
   C        3.45533         2.23903         2.44131
   S        5.06976         2.82364         2.67942
   C        5.24478         3.20060         0.98982
   C        4.07493         2.87095         0.29819
   C        3.07382         2.32993         1.12626
   C        3.87157         3.05109        -1.07888
   N        3.66520         3.18577        -2.20057
   C        6.46116         3.76901         0.54521
   C        6.74475         4.11007        -0.74167
   C        7.97328         4.70060        -1.11478
   N        8.27558         5.07618        -2.40077
   C        7.41659         4.97217        -3.55678
   C        6.36792         6.08044        -3.59112
   C        9.55323         5.65566        -2.49502
   O       10.03006         6.06138        -3.53506
   C       10.06746         5.61145        -1.14236
   C        9.08131         5.01885        -0.32214
   C        9.59604         4.96534         1.02802
   O        9.11627         4.55365         2.06799
   N       10.87202         5.53747         0.93643
   C       11.73235         5.62588         2.09119
   C       12.77902         4.51431         2.10665
   C       11.17545         5.93210        -0.35017
   C       12.38331         6.56019        -0.71239
   C       12.64648         6.98699        -1.98313
   C       13.83027         7.64702        -2.37683
   C       14.08442         8.15576        -3.63981
   C       15.36449         8.76576        -3.65597
   C       15.91397         8.59267        -2.29774
   C       14.99282         7.93267        -1.54830
   C       17.15824         9.02169        -1.82391
   N       18.17053         9.34806        -1.38871
   C       15.98593         9.41016        -4.70639
   C       17.27131        10.01448        -4.72117
   C       17.51178        10.55566        -5.96800
   C       16.34040        10.29716        -6.79363
   C       15.42575         9.61536        -6.05552
   C       14.17436         9.20469        -6.52729
   N       13.15879         8.89067        -6.96331
   C       18.69041        11.23762        -6.36374
   C       18.90778        11.76697        -7.59324
   C       20.11117        12.43874        -7.93312
   S       20.33281        13.11272        -9.55755
   C       21.88221        13.64922        -9.06740
   C       22.12032        13.30031        -7.76782
   N       21.13226        12.63312        -7.15785
   H       -0.18075         0.49235         4.36958
   H        3.97214         1.93067         5.27892
   H        2.10560         2.01784         0.77914
   H        7.20661         3.94220         1.31134
   H        6.01617         3.93703        -1.51827
   H        6.93927         3.98882        -3.57153
   H        8.07249         5.06177        -4.42727
   H        5.71425         6.02790        -2.72347
   H        5.76214         5.97984        -4.48683
   H        6.85399         7.05298        -3.60529
   H       11.07905         5.52516         2.96256
   H       12.20690         6.61081         2.12078
   H       12.28804         3.54450         2.12827
   H       13.40308         4.60765         2.99119
   H       13.41225         4.56038         1.22329
   H       13.11377         6.71993         0.06725
   H       11.90525         6.83010        -2.75583
   H       13.41341         8.10249        -4.47466
   H       15.10940         7.66065        -0.51563
   H       17.94751        10.04075        -3.88937
   H       16.22000        10.59759        -7.81750
   H       19.47015        11.33839        -5.62116
   H       18.16498        11.69888        -8.37450
   H       22.51945        14.17974        -9.74514
   H       23.02003        13.51940        -7.22148
*
