# ORCA input file
# SCF done       -224.834473698387          0.000872559009
! CAM-B3LYP def2-SVP def2/J RIJCOSX Grid4 TightSCF
%maxcore 5000
%tddft
    Mode sTDDFT
    Ethresh 5.0
    maxcore 5000
end

%pal
  nprocs 6
  end
* xyz 0 1
   C        2.33542        -2.25392         1.37610
   O        2.20853        -3.42851         1.63218
   C        3.22726        -1.30060         2.06387
   C        3.15779        -0.04128         1.44191
   C        3.93638         1.00108         1.91955
   C        4.76322         0.76956         3.01301
   C        4.81935        -0.48512         3.62889
   C        4.04730        -1.53468         3.14910
  Br        5.94388        -0.76943         5.11868
  Br        5.82428         2.19071         3.66223
   C        2.19608        -0.10605         0.34583
   C        1.77205         0.95466        -0.40544
   C        2.27132         2.26936        -0.26350
   N        2.64357         3.35163        -0.19354
   C        0.75513         0.90713        -1.38624
   N       -0.08154         0.95402        -2.16970
   C        1.71276        -1.47814         0.26706
   C        0.95164        -1.98890        -0.73989
   C        0.37717        -3.28143        -0.83901
   O        0.22934        -4.13545         0.18816
   C       -0.35343        -5.25828        -0.25496
   C       -0.62303        -5.14228        -1.61313
   C       -0.16265        -3.86116        -1.99273
   C       -0.20617        -3.28115        -3.27250
   N       -0.22481        -2.79852        -4.31020
   C       -1.38819        -6.03996        -2.53198
   F       -1.98003        -7.06127        -1.90183
   F       -2.38627        -5.34806        -3.12043
   F       -0.64654        -6.53811        -3.51875
   C       -0.56646        -6.36679         0.63464
   N       -0.98330        -6.26161         1.93367
   C       -1.31632        -5.05842         2.65880
   C       -0.13567        -4.56162         3.48645
   C       -1.08454        -7.53041         2.54424
   O       -1.42984        -7.69127         3.69603
   C       -0.68629        -8.45788         1.50973
   C       -0.36856        -7.70522         0.34954
   C        0.11699        -8.62462        -0.66563
   O        0.55940        -8.44441        -1.77381
   N       -0.00713        -9.89257        -0.05924
   C        0.42080       -11.08872        -0.74609
   C        1.79473       -11.55429        -0.27069
   C       -0.47220        -9.80411         1.22488
   C       -0.69425       -10.93277         2.06714
   C       -1.17653       -10.79846         3.31877
   C       -1.40240       -11.88255         4.24145
   C       -2.56041       -11.93551         5.03902
   C       -3.67847       -10.98919         4.83561
   O       -3.80045       -10.17892         3.96912
   S       -4.92107       -11.29210         6.08632
   C       -4.05542       -12.71830         6.73713
   O       -4.53069       -13.38827         7.60577
   C       -2.76118       -12.89295         6.02572
   C       -1.82456       -13.92675         6.30115
   C       -0.70713       -13.93259         5.43233
   C       -0.50537       -12.93304         4.47591
   C        0.82891       -13.14795         3.86701
   O        1.43551       -12.50322         3.06933
   O        1.32938       -14.30222         4.40402
   C        0.45776       -14.85454         5.29657
   O        0.67701       -15.93076         5.76538
   C       -2.03795       -14.76580         7.44853
   C       -1.31046       -15.82793         7.85837
   C       -1.56977       -16.49455         9.09086
   C       -0.67944       -17.28142         9.74469
   C       -1.12157       -18.22951        10.80909
   O       -2.17906       -18.23180        11.38670
   C       -0.00333       -19.18894        10.94140
   C        1.07559       -18.77718        10.13442
   C        0.73443       -17.50758         9.49743
   C        1.62466       -16.61308         8.97218
   C        1.31103       -15.28281         8.61632
   N        1.13413       -14.17849         8.35959
   C        3.00480       -16.88152         8.82693
   N        4.12835       -17.06354         8.69052
   C        2.22464       -19.54786        10.07437
   C        2.28380       -20.71415        10.82870
   C        1.21454       -21.10835        11.63920
   C        0.05721       -20.34231        11.69673
  Br        1.32704       -22.69104        12.66276
  Br        3.84530       -21.77238        10.74071
   H        3.92452         1.98017         1.46913
   H        4.08366        -2.50865         3.61204
   H        0.75196        -1.37338        -1.60843
   H       -2.14707        -5.31392         3.32351
   H       -1.64557        -4.29399         1.95193
   H        0.15531        -5.32340         4.20492
   H       -0.42066        -3.66301         4.02690
   H        0.71372        -4.33634         2.84633
   H        0.46666       -10.82506        -1.80641
   H       -0.32811       -11.87379        -0.61184
   H        2.53164       -10.77592        -0.45169
   H        2.08908       -12.44218        -0.82310
   H        1.78959       -11.78702         0.79157
   H       -0.49250       -11.90948         1.65482
   H       -1.45513        -9.81237         3.67522
   H       -2.84946       -14.45357         8.09057
   H       -0.50645       -16.22121         7.25894
   H       -2.56115       -16.41737         9.52394
   H        3.06375       -19.27607         9.45424
   H       -0.77480       -20.64010        12.31586
*
