# ORCA input file
# SCF done       -211.347158345162          0.000908466493
! CAM-B3LYP def2-SVP def2/J RIJCOSX Grid4 TightSCF
%maxcore 5000
%tddft
    Mode sTDDFT
    Ethresh 5.0
    maxcore 5000
end

%pal
  nprocs 6
  end
* xyz 0 1
   C       -0.23496         0.77036        -1.36951
   C       -1.24332         1.55879        -1.85181
   C       -1.55426         1.66979        -3.22472
   N       -1.83571         1.77814        -4.33120
   C       -2.16228         2.25266        -1.03605
   N       -2.97652         2.77392        -0.41761
   C        0.54932        -0.18034        -2.14876
   C        1.11175        -1.14509        -1.26017
   C        1.85943        -2.19244        -1.71790
   C        2.09201        -2.31937        -3.10511
   C        1.55041        -1.34745        -3.99639
   C        0.77494        -0.27669        -3.49635
   C        1.79779        -1.48182        -5.37794
   C        2.53990        -2.52637        -5.85780
   C        3.07031        -3.48384        -4.97982
   C        2.85096        -3.38275        -3.63299
   C        0.76170        -0.80095         0.12726
   O        1.01615        -1.40745         1.14005
   C        0.07047         0.52343         0.03371
   C       -0.06944         1.29756         1.12841
   C       -0.41152         2.69906         1.14068
   C        0.10827         3.60592         0.23643
   C       -0.31254         4.93444         0.21565
   F        0.29592         5.74874        -0.65752
   C       -1.28141         5.46049         1.06211
   C       -1.78145         4.56809         2.04016
   C       -1.32936         3.20222         2.09252
   N       -1.94187         2.50875         3.04923
   S       -2.98711         3.46461         3.79636
   N       -2.71654         4.80961         2.95867
   C       -1.82339         6.77361         0.80703
   N       -2.16025         7.72742         1.72080
   C       -1.87009         7.72076         3.13415
   C       -0.36816         7.73506         3.40091
   C       -2.71926         8.86415         1.09344
   O       -3.07368         9.85209         1.70587
   C       -2.73433         8.53216        -0.31294
   C       -2.15667         7.24870        -0.45342
   C       -2.22669         6.86126        -1.84959
   O       -1.89895         5.85406        -2.43301
   N       -2.82994         7.97219        -2.47360
   C       -3.02393         8.00605        -3.90389
   C       -1.95514         8.84393        -4.60076
   C       -3.14319         8.96787        -1.57981
   C       -3.78480        10.17277        -1.93612
   C       -4.11129        11.13086        -1.01977
   C       -4.77015        12.33993        -1.33577
   C       -5.16171        12.82969        -2.56915
   C       -5.79970        14.08429        -2.39663
   C       -5.78738        14.35512        -0.94400
   C       -5.16875        13.31552        -0.32883
   C       -6.32070        15.47525        -0.29716
   N       -6.75069        16.38248         0.26143
   C       -6.32675        14.89773        -3.37914
   C       -6.97114        16.15349        -3.21425
   C       -7.34954        16.63885        -4.45252
   C       -6.93273        15.66611        -5.45239
   C       -6.32626        14.62266        -4.82857
   C       -5.80133        13.49539        -5.46801
   N       -5.37663        12.57904        -6.01692
   C       -8.03264        17.83309        -4.79051
   C       -8.46693        18.75319        -3.88273
   C       -9.14378        19.96820        -4.14297
   C       -9.81737        20.42349        -5.24708
   C      -10.41787        21.74799        -5.31957
   C      -10.10725        22.83018        -4.53712
   C      -10.71701        24.09570        -4.66806
   N      -11.17837        25.14591        -4.71615
   C       -9.11416        22.86657        -3.53486
   N       -8.30882        22.99752        -2.72650
   C      -11.34995        21.76406        -6.43975
   C      -11.24911        20.51901        -7.11998
   C      -10.25751        19.66296        -6.44741
   O       -9.91311        18.56057        -6.82004
   C      -11.99238        20.23787        -8.22993
   C      -12.89407        21.20965        -8.71747
   C      -13.00893        22.45611        -8.03673
   C      -12.22310        22.71829        -6.89077
   C      -13.91476        23.41712        -8.52989
   C      -14.66961        23.16196        -9.64233
   C      -14.55479        21.93471       -10.31219
   C      -13.68572        20.97936        -9.85968
   H        2.26789        -2.91626        -1.02843
   H        0.38426         0.45026        -4.19117
   H        1.38428        -0.74483        -6.05041
   H        2.72209        -2.62156        -6.91766
   H        3.65355        -4.30143        -5.37610
   H        3.25633        -4.11658        -2.95191
   H        0.10594         0.82771         2.08969
   H        0.85291         3.30023        -0.48287
   H       -2.33426         6.84254         3.59042
   H       -2.33320         8.62620         3.53554
   H        0.10312         6.83629         3.00799
   H       -0.18680         7.78143         4.47093
   H        0.09251         8.60190         2.93221
   H       -4.02442         8.38400        -4.13074
   H       -2.95474         6.96790        -4.24052
   H       -1.97604         9.87423        -4.25258
   H       -2.12548         8.83569        -5.67350
   H       -0.96998         8.42974        -4.40032
   H       -4.03341        10.32402        -2.97621
   H       -3.86662        10.96793         0.02173
   H       -5.01243        12.35625        -3.51854
   H       -4.99391        13.20151         0.72504
   H       -7.12536        16.63098        -2.26721
   H       -7.09821        15.77435        -6.50847
   H       -8.21349        17.99318        -5.84262
   H       -8.23411        18.58533        -2.83858
   H       -9.15570        20.63764        -3.28950
   H      -11.89282        19.28561        -8.72957
   H      -12.33819        23.66916        -6.39547
   H      -13.99857        24.36127        -8.01198
   H      -15.35965        23.90516       -10.01279
   H      -15.15833        21.75006       -11.18826
   H      -13.59266        20.03238       -10.37104
*
