# ORCA input file
# SCF done       -204.651872945578          0.000680640707
! CAM-B3LYP def2-SVP def2/J RIJCOSX Grid4 TightSCF
%maxcore 5000
%tddft
    Mode sTDDFT
    Ethresh 5.0
    maxcore 5000
end

%pal
  nprocs 6
  end
* xyz 0 1
   C       -3.20105         5.68766        -2.34953
   C       -2.78970         5.00422        -3.46096
   C       -3.06644         5.42031        -4.78120
   N       -3.25947         5.71543        -5.87313
   C       -2.10559         3.77167        -3.44091
   N       -1.58683         2.74980        -3.50145
   C       -4.06999         6.85882        -2.35958
   C       -4.65677         7.00776        -1.06850
   C       -5.54435         8.00885        -0.79474
   C       -5.88120         8.92861        -1.81269
   C       -5.28137         8.79816        -3.09918
   C       -4.37116         7.74830        -3.35655
   C       -5.61690         9.72957        -4.10301
   C       -6.50512        10.73937        -3.85179
   C       -7.09711        10.86569        -2.58590
   C       -6.79216         9.97985        -1.58844
   C       -4.13011         5.96704        -0.17152
   O       -4.43414         5.73548         0.97432
   C       -3.06734         5.26867        -0.96267
   C       -2.16510         4.50246        -0.31109
   C       -0.88405         4.02347        -0.78037
   C       -0.32819         2.82587        -0.23864
   C        0.92452         2.41027        -0.62250
   C        1.66906         3.14425        -1.56129
   C        1.13627         4.36048        -2.07252
   C       -0.13630         4.77976        -1.65972
   N        1.84115         5.11448        -2.94438
   C        3.01210         4.66501        -3.30187
   C        3.53067         3.44384        -2.81405
   N        2.87916         2.70195        -1.96229
   C       -1.01808         2.04099         0.78062
   N       -2.27190         1.50356         0.69196
   C       -3.10750         1.43507        -0.48146
   C       -2.55105         0.45471        -1.50827
   C       -2.60315         0.75700         1.85863
   O       -3.65879         0.18067         1.99217
   C       -1.44468         0.90176         2.70570
   C       -0.48979         1.69716         2.00591
   C        0.65407         1.87044         2.86496
   O        1.70089         2.46695         2.72590
   N        0.32136         1.15413         4.03993
   C        1.31928         1.03284         5.07436
   C        1.94727        -0.35858         5.11396
   C       -0.92556         0.56362         3.94507
   C       -1.61045        -0.27509         4.87519
   C       -1.27279        -0.53526         6.15246
   N       -1.93450        -1.40412         6.99590
   C       -1.59591        -1.56576         8.32699
   C       -0.52756        -0.79889         9.00669
   C       -2.40282        -2.52907         8.86283
   C       -3.28862        -3.01638         7.83765
   C       -2.98703        -2.31207         6.61446
   O       -3.43189        -2.41449         5.50012
   C       -4.06845        -4.01672         8.34246
   C       -5.01738        -4.87639         7.61295
   N       -3.71554        -4.18767         9.67363
   C       -2.63642        -3.29620        10.05200
   O       -2.14704        -3.29985        11.15330
   C       -4.15848        -5.10445        10.57840
   C       -5.43702        -5.51806        10.77728
   C       -5.83210        -6.59052        11.67378
   C       -5.03216        -7.62832        12.06933
   C       -5.45771        -8.67075        12.91838
   N       -5.75398        -9.53654        13.61103
   C       -3.70820        -7.81267        11.61625
   N       -2.64593        -8.03356        11.24164
   C       -7.24859        -6.42645        11.96137
   C       -7.74329        -5.33744        11.18710
   C       -6.65139        -4.75376        10.39065
   O       -6.71505        -3.78800         9.66041
   C       -9.05018        -4.94705        11.24694
   C       -9.93816        -5.64329        12.09726
   C       -9.44972        -6.73165        12.87715
   C       -8.09062        -7.11186        12.79648
   C      -10.34491        -7.41469        13.72527
   C      -11.65967        -7.04277        13.80049
   C      -12.13935        -5.97121        13.03260
   C      -11.29723        -5.28693        12.19843
   H       -5.98241         8.09945         0.18808
   H       -3.92277         7.68033        -4.33535
   H       -5.16099         9.62592        -5.07664
   H       -6.75729        11.44664        -4.62756
   H       -7.79591        11.66866        -2.40534
   H       -7.24473        10.07243        -0.61207
   H       -2.40371         4.29066         0.72771
   H        1.35918         1.51218        -0.21352
   H       -0.49450         5.73218        -2.02079
   H        3.57217         5.27170        -4.00075
   H        4.49629         3.07889        -3.13744
   H       -3.20979         2.42948        -0.92432
   H       -4.08656         1.09788        -0.12876
   H       -1.59077         0.79851        -1.88490
   H       -3.23665         0.37378        -2.34664
   H       -2.42912        -0.52796        -1.05864
   H        0.89922         1.31757         6.04308
   H        2.08949         1.76659         4.81349
   H        1.19743        -1.12973         5.27549
   H        2.68501        -0.40829         5.91066
   H        2.44596        -0.56059         4.16948
   H       -2.49800        -0.72968         4.45764
   H       -0.43063        -0.05783         6.62590
   H        0.44313        -0.98606         8.54605
   H       -0.48595        -1.11030        10.04698
   H       -0.72855         0.27191         8.96525
   H       -4.74758        -4.88468         6.55957
   H       -6.02520        -4.46826         7.69887
   H       -5.02164        -5.88871         8.01373
   H       -3.37177        -5.43903        11.24988
   H       -9.40301        -4.11778        10.65188
   H       -7.74492        -7.93235        13.40549
   H       -9.97104        -8.23974        14.31355
   H      -12.33759        -7.57264        14.45260
   H      -13.17924        -5.69017        13.10554
   H      -11.66091        -4.46078        11.60516
*
