# ORCA input file
# SCF done       -214.948312866287          0.000458467185
! CAM-B3LYP def2-SVP def2/J RIJCOSX Grid4 TightSCF
%maxcore 5000
%tddft
    Mode sTDDFT
    Ethresh 5.0
    maxcore 5000
end

%pal
  nprocs 6
  end
* xyz 0 1
   C        3.37502        -0.63265         2.32372
   C        3.61869        -1.95543         1.98290
   C        4.91230        -2.62217         2.25795
   O        5.88902        -2.13698         2.73708
   S        4.79280        -4.33894         1.75092
   C        3.09227        -4.17224         1.20014
   O        2.45607        -5.09433         0.78551
   C        2.65632        -2.77185         1.38179
   C        1.37622        -2.28884         1.06428
   C        1.15471        -0.94113         1.38010
   C        2.11602        -0.15221         2.00227
   C        1.52378         1.19906         2.19856
   O        1.98539         2.16329         2.71566
   O        0.27088         1.16712         1.63643
   C       -0.01346        -0.06006         1.09795
   O       -1.00319        -0.27215         0.47101
   C        0.28691        -3.08123         0.53697
   S        0.37188        -4.14405        -0.83881
   C       -0.99014        -3.06036         1.03582
   C       -1.70806        -2.42697         2.15988
   O       -1.28969        -1.68382         3.01446
   N       -3.00513        -2.89446         2.05446
   C       -4.07784        -2.44022         2.91487
   C       -4.74515        -1.19663         2.33848
   C       -3.20604        -3.77762         0.99235
   O       -4.25178        -4.31034         0.72083
   C       -1.88951        -3.89150         0.34658
   C       -1.32849        -4.55599        -0.72538
   C       -1.99066        -5.45589        -1.59604
   C       -1.39177        -6.04149        -2.66352
   C       -1.91292        -6.97656        -3.59127
   N       -3.08481        -7.69036        -3.56773
   C       -4.14596        -7.65551        -2.58871
   C       -5.12998        -6.51913        -2.85699
   C       -3.19396        -8.55003        -4.68241
   O       -4.13657        -9.29155        -4.86164
   C       -1.98155        -8.32303        -5.44081
   C       -1.22235        -7.36458        -4.74366
   C       -0.00492        -7.11296        -5.48778
   O        0.93389        -6.37564        -5.28521
   N       -0.11678        -7.95460        -6.61196
   C        0.94154        -8.03264        -7.59033
   C        1.81979        -9.26407        -7.38256
   C       -1.27995        -8.68908        -6.59838
   C       -1.63559        -9.61694        -7.59768
   C       -2.76652       -10.38048        -7.53125
   C       -3.13749       -11.34138        -8.49655
   C       -4.22575       -12.19074        -8.40821
   C       -4.25110       -13.04632        -9.54245
   C       -3.10087       -12.64549       -10.37963
   C       -2.44729       -11.63893        -9.74760
   C       -2.74154       -13.16405       -11.62974
   N       -2.41937       -13.54517       -12.66425
   C       -5.13127       -14.07039        -9.81311
   C       -5.08982       -14.97725       -10.91436
   C       -6.13704       -15.86558       -10.80810
   C       -6.88827       -15.52636        -9.60802
   C       -6.29803       -14.46272        -9.00291
   C       -6.74394       -13.85874        -7.82170
   N       -7.13734       -13.39143        -6.84911
   C       -6.49431       -16.94370       -11.66734
   C       -5.78697       -17.29886       -12.76369
   C       -6.10517       -18.38698       -13.64504
   C       -5.08074       -19.12010       -14.29361
   C       -3.63776       -18.87719       -14.09207
   O       -3.10663       -18.08979       -13.36884
   S       -2.69280       -20.01526       -15.12315
   C       -4.15662       -20.82796       -15.75094
   O       -4.13902       -21.74128       -16.51735
   C       -5.34981       -20.17770       -15.16070
   C       -6.64151       -20.59161       -15.45567
   C       -7.65059       -19.86883       -14.84504
   C       -7.41102       -18.80552       -13.97492
   C       -8.74153       -18.23769       -13.63108
   O       -9.04252       -17.29235       -12.97195
   O       -9.69333       -19.00865       -14.26104
   C       -9.12087       -20.01173       -14.99983
   O       -9.74718       -20.80572       -15.62456
   H        4.12409        -0.02530         2.80590
   H       -3.64212        -2.22217         3.89259
   H       -4.79768        -3.25750         3.00128
   H       -4.01304        -0.40190         2.21517
   H       -5.52724        -0.85394         3.00972
   H       -5.18658        -1.42119         1.37035
   H       -3.02706        -5.62020        -1.34226
   H       -0.36534        -5.76666        -2.88230
   H       -3.71370        -7.58614        -1.58840
   H       -4.67094        -8.61136        -2.67856
   H       -4.62250        -5.55859        -2.91017
   H       -5.86828        -6.47885        -2.06147
   H       -5.64215        -6.69058        -3.80051
   H        1.54207        -7.12859        -7.45653
   H        0.51236        -8.02239        -8.59622
   H        2.27756        -9.23056        -6.39709
   H        2.60768        -9.28373        -8.13028
   H        1.23810       -10.17997        -7.46177
   H       -0.96436        -9.72491        -8.43701
   H       -3.42792       -10.27315        -6.68118
   H       -4.92886       -12.21710        -7.59880
   H       -1.57296       -11.13538       -10.11580
   H       -4.34105       -14.96077       -11.68092
   H       -7.76941       -16.04341        -9.27564
   H       -7.37053       -17.50475       -11.37668
   H       -4.86355       -16.78043       -12.97807
   H       -6.83780       -21.41166       -16.12685
*
