# ORCA input file
# SCF done       -184.937924607722          0.000253146525
! CAM-B3LYP def2-SVP def2/J RIJCOSX Grid4 TightSCF
%maxcore 5000
%tddft
    Mode sTDDFT
    Ethresh 5.0
    maxcore 5000
end

%pal
  nprocs 6
  end
* xyz 0 1
   C       -1.06400        -0.33418        -4.88716
   S       -1.13718         1.36518        -4.80707
   C        0.54120         1.46131        -4.30242
   C        1.09963         0.19344        -4.23020
   C        0.17128        -0.82051        -4.56277
   C        0.46886        -2.29409        -4.47398
   C       -0.21501        -2.79161        -3.29706
   N       -0.75150        -3.16582        -2.35997
   C        1.97338        -2.56909        -4.35966
   C        2.61032        -1.58908        -3.38231
   C        2.53918        -0.17193        -3.95983
   O        3.27589        -0.19228        -5.17677
   C        3.78367         1.04283        -5.60695
   C        1.04970         2.75896        -4.00642
   C        2.25377         3.15055        -3.46700
   C        2.29394         4.56736        -3.37183
   C        0.98839         5.05120        -3.85759
   C        0.26256         3.96873        -4.23440
   C        0.51629         6.36965        -3.85832
   N        0.06201         7.42397        -3.83301
   C        3.34846         5.34318        -2.94214
   C        3.42475         6.75993        -2.90890
   C        4.63071         7.14073        -2.34878
   C        5.37047         5.93196        -2.02990
   C        4.62718         4.85421        -2.40226
   C        5.04047         3.52354        -2.29614
   N        5.40961         2.43769        -2.21357
   C        5.01444         8.49823        -2.17746
   N        5.95120         9.00481        -1.30727
   C        6.70217         8.30348        -0.29253
   C        5.80364         7.71515         0.79043
   C        6.02275        10.41064        -1.37837
   O        6.76428        11.07549        -0.68228
   C        5.07526        10.77098        -2.40631
   C        4.47153         9.58000        -2.87295
   C        3.57371         9.92900        -3.95567
   O        2.88278         9.26446        -4.69509
   N        3.67399        11.33448        -4.04337
   C        2.86231        12.07768        -4.97658
   C        1.62075        12.65954        -4.30573
   C        4.55266        11.84846        -3.12542
   C        4.82299        13.23312        -2.97837
   C        5.69604        13.71743        -2.06301
   C        5.91890        15.11555        -1.90955
   O        6.82584        15.53908        -0.97984
   C        6.79638        16.88427        -1.05333
   C        5.84324        17.23690        -2.05591
   N        5.32682        16.07817        -2.55858
   C        5.56388        18.55869        -2.37339
   C        6.27926        19.49093        -1.64399
   C        7.22914        19.11104        -0.65180
   C        7.52170        17.80407        -0.32097
   O        7.74604        20.24664        -0.12967
   C        7.11418        21.25225        -0.80007
   N        6.25216        20.86161        -1.68774
   C        7.43034        22.60281        -0.47630
   S        8.54638        22.97436         0.79791
   C        8.33516        24.65390         0.52026
   C        7.45931        24.92202        -0.49177
   C        6.93392        23.74240        -1.06848
   C        6.02115        23.75295        -2.25774
   C        6.82431        23.38895        -3.40787
   N        7.48023        23.14481        -4.31106
   C        5.40515        25.14371        -2.46343
   C        6.47809        26.22454        -2.36193
   C        7.01505        26.29292        -0.93035
   O        5.95647        26.78051        -0.11826
   C        6.32470        27.14779         1.18389
   H       -1.93686        -0.89419        -5.16150
   H        0.04852        -2.81514        -5.34313
   H        2.43976        -2.43478        -5.33615
   H        2.13354        -3.59739        -4.03072
   H        3.65888        -1.84519        -3.23234
   H        2.09888        -1.61784        -2.41795
   H        2.99997         0.52847        -3.25354
   H        4.34272         0.83343        -6.51755
   H        4.45866         1.47773        -4.86092
   H        2.98507         1.75909        -5.83123
   H        3.06148         2.52068        -3.16196
   H       -0.73510         3.97913        -4.63317
   H        2.66155         7.42285        -3.26407
   H        6.36032         5.88308        -1.61858
   H        7.36407         9.05639         0.14673
   H        7.32423         7.53130        -0.75234
   H        5.21865         8.50383         1.25762
   H        6.41402         7.23773         1.55203
   H        5.12081         6.97551         0.37796
   H        2.55972        11.36356        -5.74774
   H        3.46427        12.86559        -5.43642
   H        1.01490        11.85771        -3.89105
   H        1.02753        13.19915        -5.03846
   H        1.89469        13.34229        -3.50452
   H        4.30503        13.93681        -3.61317
   H        6.25282        13.06539        -1.40420
   H        4.84883        18.83548        -3.12699
   H        8.23967        17.52889         0.43159
   H        8.89062        25.35407         1.11310
   H        5.25270        22.98017        -2.14507
   H        4.65652        25.32325        -1.69094
   H        4.91985        25.18589        -3.43964
   H        6.05045        27.19468        -2.61485
   H        7.29921        26.00963        -3.04838
   H        7.86661        26.99205        -0.87014
   H        5.44210        27.60126         1.63106
   H        7.14410        27.87748         1.17397
   H        6.62778        26.28124         1.78316
*
