# ORCA input file
# SCF done       -196.328407089638          0.000918249309
! CAM-B3LYP def2-SVP def2/J RIJCOSX Grid4 TightSCF
%maxcore 5000
%tddft
    Mode sTDDFT
    Ethresh 5.0
    maxcore 5000
end

%pal
  nprocs 6
  end
* xyz 0 1
   C        6.27561         4.58672         2.55196
   N        5.77995         5.68202         3.18821
   C        6.49377         6.50617         4.13091
   C        7.52825         7.38839         3.43688
   C        4.46366         5.97081         2.76604
   O        3.81176         6.90209         3.20207
   C        4.17251         4.94108         1.79999
   C        5.32667         4.09990         1.69806
   C        5.03841         3.06297         0.72542
   O        5.69247         2.13608         0.30372
   N        3.72781         3.35281         0.29742
   C        3.04339         2.50136        -0.64616
   C        2.07056         1.55221         0.04844
   C        3.20479         4.45820         0.92930
   C        1.90375         4.95987         0.66050
   C        1.38889         6.03420         1.30985
   C        0.09763         6.56299         1.05731
   S       -0.43767         7.94913         1.98451
   C       -0.90305         6.19977         0.17450
   C       -1.12842         5.17131        -0.85055
   O       -0.41772         4.27280        -1.24079
   N       -2.39921         5.42665        -1.34474
   C       -3.02900         4.61138        -2.36118
   C       -3.80853         3.45764        -1.73971
   C       -3.02586         6.51030        -0.74591
   O       -4.13474         6.89885        -1.03919
   C       -2.06050         7.01361         0.23836
   C       -1.98908         8.02705         1.17755
   C       -2.91185         9.03449         1.55575
   C       -4.12139         9.21155         0.97074
   C       -5.05494        10.20704         1.34755
   S       -4.78278        11.29333         2.67315
   C       -6.31770        12.07556         2.41944
   C       -7.00895        11.49367         1.35979
   C       -6.28873        10.45180         0.75267
   C       -6.79497         9.67571        -0.42367
   C       -7.97173        10.37800        -1.09164
   S       -7.40634        11.75420        -2.16045
   C       -8.99436        10.86274        -0.05275
   O       -9.54035         9.77049         0.64500
   C       -8.37452        11.89690         0.89699
   C       -6.62152        13.15057         3.29808
   C       -7.67215        13.99550         3.22976
   C       -7.95644        15.01568         4.20152
   C       -7.02104        15.82030         4.88820
   C       -5.60223        15.93518         4.50242
   O       -5.03443        15.44735         3.57000
   S       -4.77193        17.05312         5.63570
   C       -6.27561        17.40251         6.54710
   O       -6.28330        18.11156         7.51049
   C       -7.40187        16.68776         5.91808
   C       -8.74140        16.86458         6.33160
   C       -9.67724        16.16510         5.54989
   C       -9.29299        15.28994         4.53705
   C      -10.52196        14.74662         3.92599
   O      -10.65925        13.94001         3.05453
   O      -11.58356        15.35260         4.54619
   C      -11.15805        16.22395         5.52545
   O      -11.93009        16.87694         6.15759
   C       -9.09169        17.72497         7.43199
   C      -10.09321        17.50066         8.29858
   C      -10.37127        18.39372         9.39424
   N       -9.58945        19.55880         9.49433
   C       -9.88864        20.33044        10.41990
   C       -9.31424        21.59998        10.87381
   C       -9.68708        21.73023        12.37438
   N      -11.02955        21.28077        12.57590
   S      -11.34597        19.78010        11.48483
   C      -11.27470        18.24622        10.37691
   H        7.26689         4.22812         2.75912
   H        6.97700         5.86586         4.87521
   H        5.74320         7.12868         4.62568
   H        8.27110         6.78073         2.92456
   H        8.03258         8.01195         4.16961
   H        7.04188         8.03136         2.70737
   H        3.82351         1.92507        -1.15141
   H        2.51764         3.11377        -1.38290
   H        2.60008         0.93697         0.77221
   H        1.60559         0.90371        -0.68840
   H        1.28998         2.10729         0.56315
   H        1.31613         4.46029        -0.09499
   H        1.97243         6.53871         2.06923
   H       -2.23738         4.22965        -3.01023
   H       -3.69816         5.25968        -2.93169
   H       -3.14212         2.82300        -1.16003
   H       -4.26743         2.86028        -2.52227
   H       -4.59009         3.84023        -1.08727
   H       -2.60081         9.68868         2.36029
   H       -4.41736         8.55597         0.16423
   H       -7.10983         8.67718        -0.10052
   H       -5.99604         9.52895        -1.15371
   H       -8.46755         9.69447        -1.78471
   H       -6.56553        12.28932        -1.27691
   H       -9.84380        11.31909        -0.57131
   H       -8.87088         9.41706         1.24209
   H       -9.05048        12.00942         1.74848
   H       -8.32219        12.86195         0.38580
   H       -5.91141        13.26539         4.10652
   H       -8.43282        13.87136         2.47792
   H       -8.45229        18.57894         7.60734
   H      -10.71919        16.62356         8.23912
   H       -9.77107        22.41646        10.30540
   H       -8.23744        21.62546        10.71492
   H       -9.53887        22.75519        12.72012
   H       -9.02587        21.07284        12.95309
   H      -11.71130        21.99472        12.35327
   H      -10.66081        19.09320        12.40905
   H      -11.98261        17.44455        10.45209
*
