# ORCA input file
# SCF done       -195.246663282710          0.000444183699
! CAM-B3LYP def2-SVP def2/J RIJCOSX Grid4 TightSCF
%maxcore 5000
%tddft
    Mode sTDDFT
    Ethresh 5.0
    maxcore 5000
end

%pal
  nprocs 6
  end
* xyz 0 1
   C      -10.41733        -2.05528         1.38701
   C       -9.53869        -2.94330         0.81988
   C       -9.63810        -4.34346         0.94840
   N       -9.67802        -5.48881         1.01599
   C       -8.40527        -2.56892         0.06882
   N       -7.45404        -2.32820        -0.52798
   C      -11.53353        -2.39168         2.26187
   C      -12.10559        -1.18964         2.74676
   C      -13.18242        -1.17313         3.59892
   C      -13.71966        -2.40309         3.99407
   C      -13.14267        -3.59881         3.50328
   C      -12.05335        -3.61493         2.64033
   S      -13.96739        -5.00208         4.11027
   C      -15.06016        -3.97840         5.00373
   C      -14.82113        -2.65336         4.85702
  Br      -16.41461        -4.75526         6.04194
   C      -11.37962        -0.03351         2.18519
   O      -11.65314         1.13844         2.34553
   C      -10.33917        -0.61291         1.30367
   C       -9.62306         0.10032         0.37603
   C       -9.40992         1.49010         0.38169
   S       -9.24710         2.32914        -1.12942
   C       -9.08592         3.87471        -0.37864
   C       -9.13252         3.74954         1.02343
   C       -9.27727         2.39412         1.45035
   C       -9.20035         2.07431         2.81765
   C       -9.11913         3.08830         3.72792
   F       -9.04088         2.81043         5.03537
   C       -9.11938         4.43891         3.31352
   F       -9.10056         5.40636         4.24127
   C       -9.10864         4.77406         1.98979
   C       -8.93712         5.01275        -1.21699
   C       -8.38856         6.20317        -0.87982
   C       -8.32091         7.30305        -1.78906
   C       -7.72679         8.48304        -1.52991
   C       -7.03513         8.79463        -0.23846
   C       -7.79436         9.60854        -2.53199
   N       -8.57453        10.70491        -1.99642
   C       -8.01721        11.72985        -1.31453
   C       -8.66724        12.45383        -0.36995
   C       -8.13220        13.54915         0.35170
   S       -8.75460        13.86365         1.93060
   C       -7.59980        15.12762         2.25085
   C       -6.78684        15.33140         1.11894
   C       -7.09352        14.44772         0.03859
   C       -6.41891        14.59068        -1.18777
   C       -5.43979        15.53648        -1.30181
   F       -4.79400        15.68689        -2.47141
   C       -5.09973        16.37116        -0.21607
   F       -4.12424        17.27843        -0.37389
   C       -5.76494        16.28568         0.97452
   C       -7.51652        15.74051         3.50497
   C       -8.29720        15.39989         4.57740
   C       -8.13227        15.95479         5.85107
   C       -8.74286        15.55832         7.01494
   C       -9.52501        14.39201         7.33636
   C       -9.45937        13.15210         6.74519
   C      -10.25072        12.05378         7.13593
   N      -10.88626        11.13049         7.38761
   C       -8.53438        12.77148         5.75286
   N       -7.78332        12.36603         4.98353
   C      -10.25266        14.68417         8.57123
   C       -9.76846        15.90468         9.10463
   C       -8.76162        16.46984         8.18037
   O       -8.11670        17.48633         8.32317
   C      -10.22425        16.42462        10.29057
   C      -11.21384        15.71306        10.97846
   C      -11.70198        14.50476        10.42952
   C      -11.23446        13.97334         9.23318
   S      -12.92905        13.79504        11.43523
   C      -12.76720        15.11165        12.56692
   C      -11.84496        16.03660        12.21131
  Br      -13.83342        15.14078        14.11036
   H      -13.59570        -0.24128         3.95163
   H      -11.65223        -4.55072         2.28833
   H      -15.39750        -1.88284         5.33558
   H       -9.23632        -0.42873        -0.48733
   H       -9.19266         1.05120         3.15279
   H       -9.10897         5.81391         1.71291
   H       -9.25703         4.86843        -2.24224
   H       -7.95909         6.34331         0.09846
   H       -8.79281         7.15418        -2.75210
   H       -6.24396         8.07240        -0.04432
   H       -7.73106         8.75831         0.59966
   H       -6.59290         9.78689        -0.26142
   H       -8.26036         9.26746        -3.46068
   H       -6.79159         9.98069        -2.75924
   H       -9.51818        10.45695        -1.72843
   H       -6.99201        11.94649        -1.57807
   H       -9.64572        12.11821        -0.05126
   H       -6.68368        14.00002        -2.04826
   H       -5.50473        16.95525         1.77739
   H       -6.74090        16.48218         3.64002
   H       -9.06923        14.65797         4.42894
   H       -7.50000        16.83196         5.94158
   H       -9.83038        17.35112        10.67794
   H      -11.64058        13.05047         8.85383
   H      -11.61718        16.91156        12.79232
*
