# ORCA input file
# SCF done       -193.784959004388          0.000913085945
! CAM-B3LYP def2-SVP def2/J RIJCOSX Grid4 TightSCF
%maxcore 5000
%tddft
    Mode sTDDFT
    Ethresh 5.0
    maxcore 5000
end

%pal
  nprocs 6
  end
* xyz 0 1
   C       -2.78191        -3.36181        -1.27310
   C       -3.00139        -4.60627        -1.80819
   C       -2.69002        -5.81292        -1.14779
   N       -2.46857        -6.82850        -0.65994
   C       -3.50580        -4.87749        -3.09821
   N       -3.86102        -5.19959        -4.14151
   C       -2.10613        -3.10029        -0.00844
   C       -1.93227        -1.70301         0.13208
   C       -1.29702        -1.13726         1.21046
   C       -0.80636        -1.99337         2.20150
   C       -0.98965        -3.38927         2.05703
   C       -1.63374        -3.96037         0.96672
   S       -0.30929        -4.26417         3.39548
   C        0.21160        -2.76426         4.11611
   C       -0.11128        -1.66332         3.39693
  Br        1.12658        -2.79232         5.75316
   C       -2.52430        -1.00623        -1.02859
   O       -2.56307         0.19245        -1.18570
   C       -3.08567        -2.08294        -1.89207
   C       -3.84879        -1.92321        -3.01435
   C       -4.11084        -0.74447        -3.74655
   O       -3.49628         0.44471        -3.51867
   C       -4.94904        -0.58324        -4.84284
   C       -5.92429        -1.26219        -5.70557
   O       -6.36909        -2.37729        -5.68010
   N       -6.28158        -0.27543        -6.62796
   C       -5.66412         0.95678        -6.44905
   O       -5.83074         1.92702        -7.14716
   C       -4.81345         0.75296        -5.27621
   C       -3.90325         1.35894        -4.41976
   C       -3.37494         2.67697        -4.36269
   C       -3.68013         3.60957        -5.28965
   C       -3.17128         4.95783        -5.25393
   C       -2.98511         5.57689        -4.04779
   S       -2.39340         7.17847        -4.14472
   C       -2.31799         7.04055        -5.87550
   C       -2.78242         5.80828        -6.36113
   C       -2.71601         5.56280        -7.75589
   C       -3.21714         4.25038        -8.30165
   C       -2.21115         3.12144        -8.06869
   C       -2.16008         6.51147        -8.60696
   C       -1.98749         6.22487       -10.07590
   C       -3.21873         6.64697       -10.88200
   C       -1.73112         7.76613        -8.11139
   C       -1.10755         8.89031        -8.77704
   C       -0.77085         9.87386        -7.88973
   S       -1.18116         9.54853        -6.25569
   C       -1.81912         8.00622        -6.73170
   C       -0.81989         9.07344       -10.18239
   C        0.30711         9.69018       -10.61082
   C        0.63080         9.92871       -11.96401
   C        1.79113        10.53508       -12.36189
   C        2.22677        10.79404       -13.68742
   C        3.43613        11.41054       -13.77127
   C        4.03112        11.68838       -12.51804
   S        2.99706        11.12416       -11.22157
   C        5.23200        12.30933       -12.25368
   C        6.17112        12.82704       -13.17985
   C        7.25896        13.38421       -12.59308
   C        7.25174        13.35915       -11.16433
   S        5.77409        12.59072       -10.61243
   C        8.29600        13.78762       -10.40023
   C        8.49660        13.78857        -8.97772
   C        7.45700        13.82028        -8.02361
   O        6.19318        13.96359        -8.50232
   C        5.10743        13.93684        -7.60902
   C        7.76973        13.76860        -6.67020
   C        9.08051        13.71267        -6.24502
   C       10.12580        13.72790        -7.17022
   C        9.82307        13.77460        -8.51847
   O       11.38451        13.69405        -6.64661
   C       12.47820        13.68244        -7.52982
   H       -1.17811        -0.06764         1.28389
   H       -1.74965        -5.02917         0.90620
   H        0.13021        -0.65936         3.69506
   H       -4.33418        -2.79090        -3.44256
   H       -6.94703        -0.44668        -7.36816
   H       -2.68458         2.86813        -3.55461
   H       -4.35261         3.33232        -6.08572
   H       -3.22386         5.17169        -3.08387
   H       -3.41255         4.32892        -9.36807
   H       -4.17095         4.00129        -7.84100
   H       -1.28751         3.31747        -8.60987
   H       -2.62475         2.17783        -8.41646
   H       -1.97105         3.02351        -7.01292
   H       -1.79361         5.16511       -10.23741
   H       -1.10793         6.76161       -10.43324
   H       -4.08708         6.05737       -10.59754
   H       -3.04123         6.50683       -11.94636
   H       -3.46048         7.69191       -10.70057
   H       -0.32700        10.82071        -8.12799
   H       -1.54790         8.74933       -10.90955
   H        1.04610        10.00164        -9.88328
   H       -0.06435         9.61025       -12.72939
   H        1.62747        10.51079       -14.53489
   H        3.91679        11.67752       -14.69560
   H        6.01420        12.77352       -14.24258
   H        8.08074        13.82309       -13.13192
   H        9.15699        14.12311       -10.96847
   H        4.21792        14.00167        -8.23376
   H        5.13404        14.78863        -6.92244
   H        5.07752        13.00376        -7.03872
   H        6.98622        13.77871        -5.92996
   H        9.31919        13.67156        -5.19488
   H       10.60723        13.77421        -9.25931
   H       13.36484        13.63753        -6.89958
   H       12.51417        14.59165        -8.13886
   H       12.45623        12.80589        -8.18538
*
