# ORCA input file
# SCF done       -170.798516651392          0.001975784169
! CAM-B3LYP def2-SVP def2/J RIJCOSX Grid4 TightSCF
%maxcore 5000
%tddft
    Mode sTDDFT
    Ethresh 5.0
    maxcore 5000
end

%pal
  nprocs 6
  end
* xyz 0 1
   C        2.66064        -7.73882        -7.36400
   C        3.22472        -6.78499        -6.61224
   C        3.79019        -5.54052        -7.04722
   C        4.31307        -4.78602        -6.05532
   C        4.20594        -5.36341        -4.75919
   S        3.39547        -6.91046        -4.85034
   C        4.67208        -4.83621        -3.57489
   C        5.37474        -3.62544        -3.37857
   C        5.73055        -3.39982        -2.08370
   C        5.31887        -4.40650        -1.17848
   S        4.46146        -5.66575        -2.04016
   C        5.55118        -4.40075         0.18114
   C        5.11836        -5.33027         1.12120
   S        4.14248        -6.70830         0.71011
   C        3.98844        -7.22472         2.36622
   C        4.70843        -6.36060         3.21621
   C        5.34822        -5.29573         2.51995
   C        6.10696        -4.35414         3.22945
   C        6.22027        -4.48036         4.58762
   F        6.94706        -3.58708         5.28092
   C        5.58880        -5.53466         5.27676
   F        5.73132        -5.62120         6.61016
   C        4.84106        -6.46578         4.61124
   C        3.20196        -8.32876         2.72302
   C        2.56648        -9.13414         1.82331
   C        1.70287       -10.19501         2.15555
   S        1.24138       -10.50139         3.80881
   C        0.19612       -11.78923         3.31384
   C       -0.59025       -12.54069         4.28110
   O       -1.33521       -13.44994         4.00003
   O       -0.38792       -12.09602         5.53417
   C       -1.12248       -12.75395         6.55263
   C        0.21240       -11.97338         1.95737
   C        1.06638       -11.08609         1.27178
   C        1.31104       -11.10216        -0.14007
   C        0.70156       -11.89812        -1.04192
   C        1.06998       -11.88360        -2.42591
   C        0.51621       -12.62327        -3.39964
   C       -0.61962       -13.57981        -3.18409
   C        1.03965       -12.54420        -4.80531
   N        1.66408       -13.80777        -5.15355
   C        2.06292       -14.14575        -6.37982
   C        1.95735       -13.36642        -7.49914
   C        2.37794       -13.85248        -8.74139
   C        2.33189       -13.16003        -9.92957
   C        2.72682       -13.65838       -11.22527
   C        3.22327       -14.90400       -11.52798
   C        3.56444       -15.32816       -12.82738
   N        3.85677       -15.73864       -13.85972
   C        3.46468       -15.93999       -10.60491
   N        3.69308       -16.83175        -9.91616
   C        2.49480       -12.59271       -12.19820
   C        1.96895       -11.46632       -11.52102
   C        1.85621       -11.77587       -10.07753
   O        1.45840       -11.01612        -9.21241
   C        1.63903       -10.30215       -12.16961
   C        1.83910       -10.24404       -13.55370
   C        2.37242       -11.37140       -14.21929
   C        2.70545       -12.55028       -13.56328
   S        2.54240       -11.08691       -15.92611
   C        1.89973        -9.47938       -15.72379
   C        1.57536        -9.16890       -14.44649
  Br        1.71571        -8.36089       -17.21883
   H        2.58487        -7.62532        -8.43054
   H        2.26823        -8.64489        -6.94129
   H        3.78209        -5.26786        -8.08757
   H        4.77773        -3.82747        -6.20361
   H        5.60527        -2.95984        -4.19077
   H        6.27228        -2.53382        -1.74642
   H        6.12164        -3.56275         0.55852
   H        6.60568        -3.53853         2.73218
   H        4.37103        -7.26440         5.16093
   H        3.08868        -8.53393         3.77854
   H        2.71818        -8.93237         0.77165
   H       -0.77225       -12.34106         7.49500
   H       -0.94612       -13.83073         6.51288
   H       -2.19153       -12.56893         6.42755
   H       -0.38055       -12.73895         1.49179
   H        2.07018       -10.42213        -0.50169
   H       -0.07601       -12.57945        -0.73454
   H        1.87831       -11.21082        -2.68542
   H       -0.42718       -14.24419        -2.34375
   H       -0.78972       -14.18391        -4.07194
   H       -1.53697       -13.03250        -2.96730
   H        1.76749       -11.73030        -4.90352
   H        0.21987       -12.35554        -5.50828
   H        1.85329       -14.43307        -4.38596
   H        2.49914       -15.13377        -6.46733
   H        1.55357       -12.36910        -7.44781
   H        2.76420       -14.86318        -8.75752
   H        1.23496        -9.46052       -11.62866
   H        3.10754       -13.38200       -14.11685
   H        1.16559        -8.22195       -14.14559
*
