# ORCA input file
# SCF done       -189.685505155362          0.000493334726
! CAM-B3LYP def2-SVP def2/J RIJCOSX Grid4 TightSCF
%maxcore 5000
%tddft
    Mode sTDDFT
    Ethresh 5.0
    maxcore 5000
end

%pal
  nprocs 6
  end
* xyz 0 1
   C        2.67646         1.14566        -0.13768
   C        2.28461         0.31308         0.87688
   C        2.99268        -0.84663         1.25986
   N        3.52136        -1.79828         1.62325
   C        1.11126         0.44859         1.64988
   N        0.16856         0.47300         2.30514
   C        3.82410         0.92860        -1.00781
   C        3.77699         1.88505        -2.06063
   C        4.71926         1.92128        -3.04825
   C        5.77847         0.98745        -3.02230
   C        5.83960         0.03279        -1.96573
   C        4.84614         0.01711        -0.96024
   C        6.90464        -0.89080        -1.94649
   C        7.86269        -0.87470        -2.92335
   C        7.80081         0.06489        -3.96347
   C        6.78076         0.97598        -4.01220
   C        2.60785         2.76049        -1.88533
   O        2.26069         3.64238        -2.64182
   C        1.98332         2.34272        -0.60052
   C        1.03813         2.99386         0.13620
   C        0.25715         4.13996        -0.14906
   S       -0.70884         4.78208         1.16264
   C       -1.35982         6.03267         0.16412
   C       -0.84469         5.93314        -1.13745
   C        0.05582         4.87420        -1.30276
   C       -1.16932         6.78656        -2.20707
   N       -1.40760         7.45926        -3.10546
   C       -2.27529         6.95442         0.73276
   C       -2.88760         7.96304         0.06273
   C       -3.80084         8.86977         0.65781
   S       -4.52824        10.09999        -0.35220
   C       -4.28080         9.00153         1.94873
   C       -4.11334         8.33537         3.25447
   O       -3.41833         7.39829         3.56945
   N       -4.95983         9.01218         4.11472
   C       -5.08770         8.69279         5.52176
   C       -4.24192         9.62898         6.37705
   C       -5.66518        10.05098         3.51551
   O       -6.48338        10.73456         4.07352
   C       -5.20248        10.05693         2.11534
   C       -5.46100        10.77735         0.96641
   C       -6.30120        11.90141         0.75725
   C       -6.97213        12.64434         1.69946
   C       -7.70021        13.67974         1.03389
   C       -7.43340        13.51050        -0.40905
   C       -6.58576        12.46205        -0.55760
   C       -7.93630        14.28889        -1.45819
   N       -8.33738        14.90054        -2.34358
   C       -8.48780        14.64437         1.60800
   C       -9.31439        15.60287         0.93121
   C      -10.02604        16.31554         1.86212
   C       -9.59512        15.88270         3.18945
   C       -8.67932        14.88992         3.04572
   C       -7.97272        14.30250         4.10458
   N       -7.39010        13.88527         5.00115
   C      -10.99706        17.31975         1.57175
   C      -12.12925        17.54189         2.28814
   C      -13.10581        18.60243         2.10073
   C      -12.93415        19.73479         1.35059
   C      -13.90578        20.74972         1.21822
   N      -14.65740        21.60434         1.07149
   C      -11.75832        20.05678         0.63917
   N      -10.82631        20.38900         0.05748
   C      -14.26805        18.28303         2.91888
   C      -14.00377        17.08462         3.64399
   C      -12.67077        16.57692         3.28860
   O      -12.15166        15.54876         3.66510
   C      -14.91782        16.54417         4.50294
   C      -16.16200        17.18900         4.67941
   C      -16.43749        18.38378         3.95237
   C      -15.47200        18.91982         3.07024
   C      -17.68574        19.01445         4.13054
   C      -18.61750        18.49249         4.98604
   C      -18.34468        17.31725         5.70227
   C      -17.14298        16.67950         5.55277
   H        4.65685         2.65518        -3.83800
   H        4.92445        -0.71415        -0.17164
   H        6.94718        -1.61334        -1.14479
   H        8.67405        -1.58658        -2.90011
   H        8.56553         0.06331        -4.72564
   H        6.72776         1.70185        -4.81033
   H        0.84967         2.59830         1.12794
   H        0.54827         4.65548        -2.23324
   H       -2.48487         6.81624         1.78580
   H       -2.69818         8.11575        -0.99039
   H       -4.76537         7.65658         5.64622
   H       -6.14279         8.79027         5.78884
   H       -3.19252         9.55006         6.10144
   H       -4.34897         9.36380         7.42483
   H       -4.56987        10.65687         6.24180
   H       -6.97380        12.47342         2.75834
   H       -6.18575        12.08303        -1.48035
   H       -9.41344        15.68264        -0.13398
   H       -9.90553        16.32808         4.11461
   H      -10.81161        17.90161         0.67688
   H      -14.69305        15.63527         5.04113
   H      -15.71273        19.82144         2.52965
   H      -17.89077        19.91944         3.57784
   H      -19.57062        18.98268         5.11563
   H      -19.09165        16.91952         6.37267
   H      -16.92751        15.77420         6.10106
*
