# ORCA input file
# SCF done       -246.371072337071          0.000886802939
! CAM-B3LYP def2-SVP def2/J RIJCOSX Grid4 TightSCF
%maxcore 5000
%tddft
    Mode sTDDFT
    Ethresh 5.0
    maxcore 5000
end

%pal
  nprocs 6
  end
* xyz 0 1
   C       -4.69980        -4.52750         5.61422
   C       -5.14927        -5.25452         6.68089
   F       -5.04153        -4.76703         7.92087
   C       -5.73081        -6.52529         6.48966
   F       -6.16100        -7.21524         7.55158
   C       -5.85499        -7.05036         5.23391
   C       -5.40061        -6.32579         4.11457
   C       -4.81246        -5.04085         4.30649
   C       -4.34356        -4.29921         3.19877
   C       -4.45689        -4.82702         1.93927
   C       -5.04377        -6.11321         1.75508
   C       -5.50780        -6.84997         2.80828
   C       -5.00627        -6.47041         0.32949
   O       -5.43579        -7.47954        -0.19312
   C       -4.26963        -5.36568        -0.33349
   C       -4.05377        -4.30590         0.64021
   C       -3.63134        -3.03970         0.35635
   C       -3.39803        -2.58868        -0.96184
   N       -3.24815        -2.18272        -2.02402
   C       -3.44768        -2.03215         1.32782
   N       -3.28568        -1.18721         2.08626
   C       -3.71166        -5.50651        -1.55593
   C       -3.98126        -6.65186        -2.38734
   C       -3.09883        -7.67449        -2.64360
   N       -1.78636        -7.70729        -2.14292
   O       -1.06715        -8.62980        -2.46750
   O       -1.45729        -6.79193        -1.39937
   C       -3.75972        -8.71548        -3.39619
   C       -5.05409        -8.35640        -3.55492
   C       -5.26021        -7.05340        -2.95671
   C       -6.37788        -6.25396        -3.04040
   C       -6.41000        -4.82564        -3.06600
   C       -7.63234        -4.42992        -3.52407
   C       -8.45618        -5.58730        -3.72121
   N       -9.81795        -5.52114        -4.07151
   O      -10.26387        -4.43018        -4.37738
   O      -10.47113        -6.55071        -4.04089
   C       -7.73279        -6.72656        -3.38492
   C       -8.18214        -8.05057        -3.22127
   C       -7.66429        -8.86329        -2.24689
   C       -8.04910       -10.20175        -2.06599
   N       -7.79859       -10.92426        -0.92658
   C       -7.27081       -10.40279         0.31260
   C       -8.32211        -9.59025         1.06399
   C       -8.24714       -12.24871        -1.03323
   O       -8.16858       -13.06284        -0.13706
   C       -8.77420       -12.34150        -2.38510
   C       -8.66032       -11.07614        -2.97946
   C       -9.10151       -11.17891        -4.35978
   O       -9.15660       -10.36677        -5.25343
   N       -9.46117       -12.53441        -4.50267
   C      -10.01561       -13.03381        -5.73950
   C      -11.52830       -13.21254        -5.64873
   C       -9.27131       -13.24447        -3.34612
   C       -9.47622       -14.63064        -3.22052
   C       -9.34089       -15.28291        -2.02580
   C       -9.43860       -16.68075        -1.86082
   C       -9.50375       -17.67314        -2.82209
   C       -9.48069       -18.94364        -2.18357
   C       -9.45669       -18.67427        -0.73112
   C       -9.41514       -17.33080        -0.55430
   C       -9.49118       -19.62576         0.29613
   N       -9.53771       -20.38097         1.15957
   C       -9.37592       -20.17526        -2.78775
   C       -9.16738       -21.43573        -2.15196
   C       -8.86291       -22.37381        -3.11000
   C       -8.97184       -21.73662        -4.41622
   C       -9.30295       -20.43122        -4.23625
   C       -9.53723       -19.50707        -5.25985
   N       -9.73500       -18.76363        -6.11307
   C       -8.49912       -23.72879        -2.87550
   C       -7.68132       -24.50156        -3.63566
   C       -7.69389       -25.98729        -3.49200
   O       -8.21396       -26.62123        -2.60637
   C       -6.98992       -26.49345        -4.68713
   C       -6.81363       -27.78516        -5.09304
   C       -6.10992       -28.03881        -6.29142
   C       -5.60821       -26.94352        -7.05383
   C       -4.91083       -27.20340        -8.25072
   C       -4.71692       -28.49000        -8.66890
   C       -5.21194       -29.57274        -7.91317
   C       -5.89421       -29.35325        -6.74933
   F       -5.00747       -30.82188        -8.34771
   F       -4.05300       -28.73549        -9.80422
   C       -5.80189       -25.61671        -6.60709
   C       -6.47584       -25.39492        -5.43554
   C       -6.77413       -24.16166        -4.71341
   C       -6.12455       -22.96632        -4.87642
   C       -6.20700       -21.88794        -3.96957
   N       -6.17159       -21.00905        -3.23185
   C       -5.20753       -22.71194        -5.91832
   N       -4.47127       -22.45353        -6.75960
   H       -4.25750        -3.55737         5.77847
   H       -6.29987        -8.02484         5.10654
   H       -3.89181        -3.33574         3.37295
   H       -5.94171        -7.82519         2.64757
   H       -2.97484        -4.79817        -1.91496
   H       -3.26704        -9.60342        -3.74212
   H       -5.79958        -8.88016        -4.12042
   H       -5.56586        -4.19048        -2.87455
   H       -7.96583        -3.42655        -3.71216
   H       -9.02366        -8.37854        -3.81905
   H       -6.95837        -8.45053        -1.53909
   H       -6.38865        -9.79142         0.10740
   H       -6.97718       -11.27275         0.90609
   H       -8.60677        -8.70786         0.49543
   H       -7.92717        -9.27274         2.02457
   H       -9.20880       -10.19470         1.24053
   H       -9.52749       -13.97489        -6.00671
   H       -9.77771       -12.28534        -6.50009
   H      -11.79237       -13.92520        -4.87042
   H      -11.90995       -13.57603        -6.59827
   H      -12.00402       -12.26086        -5.42502
   H       -9.74099       -15.18770        -4.10744
   H       -9.12700       -14.70694        -1.13467
   H       -9.51353       -17.53298        -3.88446
   H       -9.37688       -16.80400         0.38110
   H       -9.15410       -21.59537        -1.09180
   H       -8.86348       -22.24114        -5.35928
   H       -8.95021       -24.21578        -2.01674
   H       -7.20383       -28.60245        -4.50594
   H       -4.52215       -26.38681        -8.83892
   H       -6.26606       -30.19234        -6.18248
   H       -5.41763       -24.80671        -7.20643
*
