# ORCA input file
# SCF done       -213.527458835520          0.000657906650
! CAM-B3LYP def2-SVP def2/J RIJCOSX Grid4 TightSCF
%maxcore 5000
%tddft
    Mode sTDDFT
    Ethresh 5.0
    maxcore 5000
end

%pal
  nprocs 6
  end
* xyz 0 1
   C       -6.03154         1.86979        -0.28681
   C       -6.84041         2.79042         0.31778
   F       -6.40668         4.04077         0.51585
   C       -8.13868         2.43772         0.74094
   F       -8.90793         3.36063         1.33114
   C       -8.60993         1.16878         0.55268
   C       -7.80031         0.19708        -0.06764
   C       -6.48716         0.55194        -0.49489
   C       -5.65613        -0.40677        -1.11625
   C       -6.12176        -1.68252        -1.30541
   C       -7.43841        -2.02677        -0.88049
   C       -8.26290        -1.12051        -0.27640
   C       -7.70494        -3.43628        -1.20934
   O       -8.70662        -4.08377        -1.00069
   C       -6.46968        -3.92796        -1.87716
   C       -5.48713        -2.85537        -1.89734
   C       -4.20398        -2.94099        -2.35583
   C       -3.61765        -4.12834        -2.84742
   N       -3.08231        -5.07293        -3.21779
   C       -3.29033        -1.86445        -2.36237
   N       -2.51005        -1.02406        -2.39110
   C       -6.42530        -5.15749        -2.43015
   C       -7.55612        -6.06513        -2.37352
   C       -8.41322        -6.23280        -3.43317
   N       -8.30223        -5.50154        -4.62153
   O       -9.12306        -5.68199        -5.49827
   O       -7.36553        -4.71213        -4.69734
   C       -9.44430        -7.18954        -3.09550
   C       -9.18023        -7.65179        -1.85739
   C       -7.98157        -7.00897        -1.34430
   C       -7.37090        -7.21950        -0.12892
   C       -6.50688        -6.30237         0.55245
   C       -6.42498        -6.66256         1.86168
   C       -7.14675        -7.88411         2.05599
   N       -7.18685        -8.54752         3.29188
   O       -6.62456        -8.01344         4.23237
   O       -7.78423        -9.61236         3.37069
   C       -7.67586        -8.30315         0.83214
   C       -8.19922        -9.57840         0.55585
   C       -8.18226       -10.14671        -0.69115
   C       -8.65694       -11.39966        -1.11433
   N       -9.32041       -12.39866        -0.44460
   C       -9.66116       -12.47274         0.95870
   C       -8.46900       -12.88855         1.81524
   C       -9.62280       -13.48276        -1.29136
   O      -10.20504       -14.48131        -0.92754
   C       -9.10858       -13.09044        -2.59023
   C       -8.53238       -11.82083        -2.44902
   C       -8.04757       -11.38765        -3.74343
   O       -7.50591       -10.36833        -4.10842
   N       -8.36702       -12.46305        -4.60101
   C       -7.99396       -12.44033        -5.99530
   C       -6.72398       -13.24646        -6.25536
   C       -8.99126       -13.48583        -3.93255
   C       -9.41946       -14.68727        -4.53380
   C      -10.01925       -15.68764        -3.82854
   C      -10.45294       -16.90105        -4.40157
   C      -11.06047       -17.96013        -3.72736
   C      -11.26096       -17.93988        -2.33519
   N      -11.38971       -17.92677        -1.19702
   C      -11.38444       -19.03988        -4.58341
   C      -10.99324       -18.77820        -5.89798
   S      -10.26267       -17.24071        -6.11642
   S      -11.30396       -20.05062        -7.02728
   C      -11.98465       -20.96857        -5.71827
   C      -11.98227       -20.33143        -4.48492
   C      -12.59420       -21.13948        -3.48453
   C      -12.91206       -20.71680        -2.18212
   N      -13.25533       -20.37225        -1.14454
   C      -13.00467       -22.36383        -3.98011
   S      -12.68417       -22.53961        -5.68961
   C      -13.62499       -23.42943        -3.25391
   S      -14.81607       -24.46462        -3.99830
   C      -15.02442       -25.35005        -2.55906
   C      -14.21729       -24.89873        -1.54733
   C      -13.39954       -23.79473        -1.94215
   O      -12.46597       -23.21169        -1.17541
   C      -14.15920       -25.44556        -0.25315
   N      -14.05872       -25.85356         0.81374
   H       -5.04103         2.15620        -0.60417
   H       -9.60544         0.91487         0.88154
   H       -4.66926        -0.10775        -1.43087
   H       -9.25545        -1.40677         0.03667
   H       -5.55943        -5.49553        -2.98650
   H      -10.26300        -7.43533        -3.74284
   H       -9.78329        -8.33264        -1.29074
   H       -6.08168        -5.42259         0.11500
   H       -5.90564        -6.15088         2.65015
   H       -8.51245       -10.14465         1.42027
   H       -7.71548        -9.59532        -1.49815
   H      -10.44338       -13.23375         1.03552
   H      -10.07148       -11.51470         1.28454
   H       -8.15041       -13.89227         1.54488
   H       -8.75485       -12.88204         2.86260
   H       -7.62994       -12.20953         1.68643
   H       -7.81849       -11.39013        -6.24411
   H       -8.82414       -12.81227        -6.60176
   H       -5.89954       -12.83660        -5.67736
   H       -6.46686       -13.19518        -7.30943
   H       -6.85771       -14.28956        -5.97703
   H       -9.25975       -14.81216        -5.59669
   H      -10.18723       -15.57646        -2.76299
   H      -15.72479       -26.16060        -2.51551
   H      -12.50543       -23.54179        -0.26727
*
