# ORCA input file
# SCF done       -187.967740984322          0.000664154013
! CAM-B3LYP def2-SVP def2/J RIJCOSX Grid4 TightSCF
%maxcore 5000
%tddft
    Mode sTDDFT
    Ethresh 5.0
    maxcore 5000
end

%pal
  nprocs 6
  end
* xyz 0 1
   C       -2.86715         4.24498         0.52980
   C       -3.46075         5.34118         1.08968
   F       -3.03694         6.57185         0.77349
   C       -4.52333         5.19345         2.00390
   F       -5.08686         6.28612         2.53678
   C       -4.97777         3.95068         2.34549
   C       -4.38711         2.80143         1.78504
   C       -3.31181         2.94914         0.86140
   C       -2.70086         1.81020         0.28884
   C       -3.15381         0.56227         0.62809
   C       -4.23386         0.42528         1.54144
   C       -4.84032         1.50527         2.11535
   C       -4.55068        -1.00496         1.72611
   O       -5.39166        -1.44480         2.48136
   C       -3.65246        -1.73595         0.79991
   C       -2.72694        -0.77260         0.22142
   C       -1.59563        -1.05006        -0.49929
   C       -0.73104        -0.06051        -1.01438
   N        0.00312         0.69628        -1.46798
   C       -1.08990        -2.33815        -0.78099
   N       -0.58638        -3.34210        -1.01920
   C       -3.71795        -3.04393         0.40108
   C       -4.51208        -4.11984         0.85015
   C       -5.36355        -4.26874         1.94015
   C       -5.91808        -5.53086         2.03158
   C       -5.51767        -6.39708         1.01480
   S       -4.41952        -5.59938        -0.07093
   C       -5.85768        -7.74787         0.74059
   N       -6.64470        -8.59916         1.48332
   C       -7.24682        -8.38405         2.77682
   C       -6.21280        -8.41064         3.89956
   C       -6.75744        -9.87313         0.87392
   O       -7.39387       -10.78740         1.35232
   C       -5.98470        -9.75820        -0.33778
   C       -5.44482        -8.45658        -0.38796
   C       -4.67405        -8.34940        -1.60213
   O       -4.03049        -7.43173        -2.07039
   N       -4.79184        -9.61420        -2.21325
   C       -4.16476        -9.84036        -3.49354
   C       -5.16841        -9.76487        -4.64153
   C       -5.57828       -10.46676        -1.46975
   C       -5.95102       -11.81484        -1.68833
   C       -5.62324       -12.66147        -2.69979
   C       -6.06231       -14.00786        -2.76701
   C       -6.87565       -14.72621        -1.89743
   C       -7.10929       -16.02565        -2.31004
   C       -6.47292       -16.35954        -3.50140
   S       -5.56107       -15.00373        -4.09562
   C       -6.40307       -17.59430        -4.17923
   C       -7.19735       -18.69746        -4.06150
   C       -6.66255       -20.01357        -4.50856
   O       -5.67161       -20.20298        -5.17462
   C       -7.56527       -21.02041        -3.91434
   C       -7.45184       -22.38050        -3.91342
   C       -8.42935       -23.15048        -3.24367
   C       -9.50701       -22.49194        -2.58317
   C      -10.47316       -23.26571        -1.90948
   C      -10.37572       -24.62885        -1.89444
   C       -9.31059       -25.27916        -2.54942
   C       -8.35728       -24.55668        -3.21072
   F       -9.23948       -26.61649        -2.51688
   F      -11.29491       -25.36231        -1.25362
   C       -9.60314       -21.08145        -2.60914
   C       -8.64837       -20.35690        -3.27039
   C       -8.50396       -18.91850        -3.48621
   C       -9.52118       -18.00253        -3.39958
   C       -9.41199       -16.67884        -3.86943
   N       -9.36824       -15.60502        -4.27239
   C      -10.80997       -18.30585        -2.91647
   N      -11.86531       -18.50178        -2.51009
   H       -2.05382         4.37581        -0.16679
   H       -5.79210         3.85424         3.04641
   H       -1.89323         1.95623        -0.40979
   H       -5.65585         1.37132         2.80971
   H       -3.06943        -3.32061        -0.42294
   H       -5.56460        -3.47381         2.63401
   H       -6.59728        -5.79996         2.81724
   H       -7.94812        -9.21349         2.91140
   H       -7.81550        -7.45127         2.77223
   H       -5.72745        -9.38306         3.92923
   H       -6.70236        -8.23900         4.85415
   H       -5.45009        -7.64919         3.75378
   H       -3.63576       -10.79632        -3.48114
   H       -3.42766        -9.03911        -3.60549
   H       -5.97404       -10.48397        -4.51197
   H       -4.66550        -9.96550        -5.58345
   H       -5.60112        -8.76853        -4.68562
   H       -6.58683       -12.18658        -0.89548
   H       -4.99543       -12.34525        -3.51767
   H       -7.28716       -14.30787        -0.99738
   H       -7.68593       -16.73352        -1.74128
   H       -5.54741       -17.72583        -4.83543
   H       -6.62705       -22.86305        -4.41522
   H      -11.29700       -22.78423        -1.40619
   H       -7.54817       -25.06931        -3.70695
   H      -10.42495       -20.60836        -2.09545
*
