# ORCA input file
# SCF done       -255.770572214598          0.000748755889
! CAM-B3LYP def2-SVP def2/J RIJCOSX Grid4 TightSCF
%maxcore 5000
%tddft
    Mode sTDDFT
    Ethresh 5.0
    maxcore 5000
end

%pal
  nprocs 6
  end
* xyz 0 1
   C       -9.46762        -1.92958        -2.14815
   C      -10.27139        -1.96426        -3.25325
   F      -10.73148        -0.82515        -3.78390
   C      -10.62593        -3.19217        -3.84864
   F      -11.41112        -3.18933        -4.93295
   C      -10.18393        -4.37340        -3.32279
   C       -9.36126        -4.36804        -2.18078
   C       -8.98277        -3.12782        -1.58920
   C       -8.10122        -3.10821        -0.48517
   C       -7.58692        -4.28859        -0.01549
   C       -7.97675        -5.52448        -0.60782
   C       -8.86490        -5.57631        -1.64446
   C       -7.17850        -6.61440        -0.03007
   O       -7.33834        -7.81211        -0.15658
   C       -6.18046        -5.94029         0.85010
   C       -6.55330        -4.55416         0.97869
   C       -5.94733        -3.62919         1.79176
   C       -6.35415        -2.28259         1.88744
   N       -6.65115        -1.18138         2.01306
   C       -4.84024        -3.91654         2.61605
   N       -3.91000        -4.08961         3.26530
   C       -5.15107        -6.64054         1.45662
   C       -4.52552        -7.68659         0.78511
   C       -3.88750        -8.84926         1.24388
   N       -3.72290        -9.22397         2.59106
   O       -3.14506       -10.27045         2.81545
   O       -4.16049        -8.47285         3.44522
   C       -3.52290        -9.63422         0.13180
   C       -3.93389        -8.99213        -1.02821
   C       -4.52325        -7.76855        -0.68729
   C       -4.93312        -6.68033        -1.48105
   C       -4.51180        -5.34046        -1.23879
   C       -5.04588        -4.51861        -2.19349
   C       -5.86384        -5.29974        -3.05308
   N       -6.65986        -4.73476        -4.06016
   O       -6.86339        -3.53074        -3.99396
   O       -7.11737        -5.45747        -4.92834
   C       -5.81267        -6.65054        -2.65854
   C       -6.70780        -7.64470        -3.08290
   C       -6.77302        -8.91944        -2.57839
   C       -7.77776        -9.83955        -2.91075
   N       -7.71994       -11.16713        -2.55461
   C       -6.69658       -11.79765        -1.74979
   C       -6.88714       -11.48781        -0.26689
   C       -8.82180       -11.88477        -3.01307
   O       -8.98001       -13.08005        -2.85007
   C       -9.64443       -10.90040        -3.69046
   C       -8.98448        -9.65874        -3.61294
   C       -9.86714        -8.65935        -4.17625
   O       -9.79608        -7.45245        -4.25080
   N      -10.99473        -9.39223        -4.61590
   C      -12.09024        -8.74043        -5.29365
   C      -11.99555        -8.90733        -6.80781
   C      -10.87953       -10.72037        -4.32883
   C      -11.86352       -11.70551        -4.63414
   C      -11.69036       -12.99106        -4.27476
   C      -12.67904       -14.07051        -4.49528
   C      -13.06732       -14.55325        -3.07447
   O      -13.82474       -14.00714        -2.33602
   O      -12.41189       -15.67617        -2.78839
   C      -11.60054       -16.12876        -3.86837
   C      -12.14921       -15.38161        -5.09912
   C      -11.18108       -15.28542        -6.27241
   C       -9.77824       -14.84958        -5.87140
   C       -9.18607       -15.69157        -4.74948
   C      -10.10551       -15.91269        -3.53380
   O       -9.61441       -17.10282        -2.91763
   C       -8.90379       -17.84398        -3.76628
   O       -8.43906       -18.91182        -3.48908
   C       -8.83316       -17.14129        -5.12167
   C       -7.60088       -17.35639        -5.92733
   C       -6.43258       -17.93457        -5.61900
   C       -5.58847       -18.43718        -6.76110
   O       -5.60869       -18.03335        -7.89649
   C       -4.82619       -19.56187        -6.19385
   C       -4.05139       -20.48498        -6.83856
   C       -3.45094       -21.51957        -6.08870
   C       -3.66958       -21.58423        -4.68049
   C       -3.07705       -22.62945        -3.94303
   C       -2.30241       -23.56339        -4.57161
   C       -2.08427       -23.49645        -5.96355
   C       -2.64540       -22.49670        -6.70690
   F       -1.32117       -24.42530        -6.55240
   F       -1.74085       -24.55488        -3.87085
   C       -4.46564       -20.60964        -4.03797
   C       -5.02846       -19.60859        -4.78365
   C       -5.84295       -18.46459        -4.39407
   C       -5.81134       -17.85649        -3.17498
   C       -6.36097       -16.57923        -2.95236
   N       -6.72249       -15.50376        -2.78173
   C       -5.12022       -18.37948        -2.06021
   N       -4.56429       -18.76746        -1.13569
   H       -9.19225        -0.97963        -1.71793
   H      -10.42519        -5.30954        -3.80090
   H       -7.82425        -2.15636        -0.06116
   H       -9.14534        -6.51524        -2.09489
   H       -4.80416        -6.39232         2.45381
   H       -3.01198       -10.57670         0.19793
   H       -3.72148        -9.31510        -2.03090
   H       -3.80893        -5.06069        -0.47616
   H       -4.88757        -3.46336        -2.30954
   H       -7.42767        -7.34176        -3.83437
   H       -6.03033        -9.24930        -1.87415
   H       -5.71285       -11.47086        -2.09600
   H       -6.79074       -12.87392        -1.92082
   H       -6.91774       -10.41522        -0.08711
   H       -6.07095       -11.91972         0.30510
   H       -7.82033       -11.91988         0.08532
   H      -12.02072        -7.67933        -5.04018
   H      -13.03708        -9.13150        -4.91296
   H      -11.06940        -8.47072        -7.17310
   H      -12.82847        -8.39812        -7.28370
   H      -12.01916        -9.95805        -7.08880
   H      -12.75282       -11.39455        -5.16303
   H      -10.80913       -13.26224        -3.71284
   H      -13.55881       -13.69490        -5.02077
   H      -11.76722       -17.20947        -3.94708
   H      -13.03335       -15.93383        -5.44072
   H      -11.58322       -14.58470        -7.00583
   H      -11.13774       -16.26450        -6.75534
   H       -9.79366       -13.80842        -5.55111
   H       -9.12078       -14.91099        -6.74041
   H       -8.28336       -15.19419        -4.38135
   H       -9.99829       -15.11544        -2.79475
   H       -9.66052       -17.56120        -5.71332
   H       -7.71590       -17.11275        -6.98004
   H       -3.90309       -20.42885        -7.90626
   H       -3.23085       -22.69330        -2.87725
   H       -2.46942       -22.46004        -7.77058
   H       -4.62925       -20.68360        -2.97472
*
