# ORCA input file
# SCF done       -187.959683962399          0.000768753809
! CAM-B3LYP def2-SVP def2/J RIJCOSX Grid4 TightSCF
%maxcore 5000
%tddft
    Mode sTDDFT
    Ethresh 5.0
    maxcore 5000
end

%pal
  nprocs 6
  end
* xyz 0 1
   C        7.93029         0.31775         1.76284
   S        7.44818        -1.22140         2.37136
   C        6.39143        -1.51904         0.99953
   C        6.44617        -0.44950         0.15233
   C        7.31234         0.58856         0.58415
   C        7.27576         1.66484        -0.43041
   O        7.85261         2.71605        -0.47447
   N        6.37425         1.20002        -1.38178
   C        5.81343        -0.04355        -1.11510
   O        4.97901        -0.59453        -1.78014
   C        5.67158        -2.74806         0.83461
   C        5.65827        -3.55727        -0.27897
   N        6.36949        -3.39469        -1.49290
   O        6.10399        -4.16729        -2.39085
   O        7.22404        -2.53110        -1.55232
   C        4.85948        -4.73007        -0.00540
   C        4.43282        -4.67194         1.27842
   C        4.87584        -3.42961         1.85969
   C        4.48003        -2.88432         3.06371
   C        4.36092        -1.49534         3.36058
   C        3.67536        -1.35870         4.53066
   C        3.36974        -2.64948         5.06458
   N        2.69539        -2.74424         6.29152
   O        2.18554        -3.80757         6.62914
   O        2.63184        -1.73321         6.96721
   C        3.89633        -3.63130         4.20351
   C        4.12208        -5.00392         4.34380
   C        3.53419        -5.86016         5.24919
   C        3.80985        -7.21728         5.34099
   S        5.02604        -8.07400         4.40668
   C        4.64015        -9.63562         5.10476
   C        3.59672        -9.49140         6.04867
   C        3.16272        -8.14698         6.17002
   N        2.17877        -8.08746         7.09226
   C        1.96726        -9.35909         7.57223
   C        1.00485        -9.63088         8.55798
   N        0.22195        -9.85747         9.36371
   C        2.82486       -10.25208         6.95158
   C        5.35573       -10.75849         4.70752
   C        5.01105       -12.04144         5.08140
   C        5.69850       -13.20877         4.75018
   C        5.14707       -14.50133         4.70599
   N        3.87773       -14.91452         5.14693
   O        3.56915       -16.07513         4.95285
   O        3.16141       -14.10184         5.71553
   C        6.07431       -15.38277         4.08449
   C        7.19655       -14.68075         3.74162
   C        7.05865       -13.33268         4.19212
   C        8.08208       -12.41295         4.33670
   C        8.20897       -11.48281         5.42072
   C        9.48218       -11.00493         5.44311
   C       10.19807       -11.54428         4.32280
   N       11.52800       -11.18485         4.03313
   O       12.07046       -11.68168         3.05958
   O       12.06587       -10.39438         4.78731
   C        9.36121       -12.39276         3.60511
   C        9.62195       -12.97258         2.34086
   C        8.66102       -13.34284         1.45452
   C        8.91247       -13.91712         0.18737
   S       10.50727       -14.26938        -0.46122
   C        9.85769       -14.90803        -1.92141
   C        8.49657       -14.86038        -1.91815
   C        7.96234       -14.30249        -0.73256
   C        6.49606       -14.30409        -0.82300
   O        5.66785       -13.92638        -0.03403
   N        6.23817       -14.86296        -2.06857
   C        7.36734       -15.22790        -2.80038
   O        7.35405       -15.72502        -3.89146
   H        8.63669         0.90991         2.30969
   H        6.15170         1.72532        -2.21591
   H        4.66709        -5.49362        -0.73449
   H        3.76547        -5.36495         1.75178
   H        4.64598        -0.69748         2.70436
   H        3.37629        -0.44271         5.00493
   H        4.83436        -5.43578         3.65167
   H        2.78010        -5.47418         5.92108
   H        1.68684        -7.26062         7.39495
   H        2.85826       -11.30546         7.14402
   H        6.18963       -10.59907         4.03725
   H        4.06966       -12.18445         5.59203
   H        5.89142       -16.42983         3.93277
   H        8.09236       -15.09384         3.32119
   H        7.45570       -11.31241         6.16490
   H        9.92057       -10.33900         6.16187
   H       10.66327       -13.03987         2.04892
   H        7.61145       -13.18830         1.67068
   H       10.51590       -15.27554        -2.68371
   H        5.30085       -14.99807        -2.42160
*
