# ORCA input file
# SCF done       -283.599307158724          0.000413424101
! CAM-B3LYP def2-SVP def2/J RIJCOSX Grid4 TightSCF
%maxcore 5000
%tddft
    Mode sTDDFT
    Ethresh 5.0
    maxcore 5000
end

%pal
  nprocs 6
  end
* xyz 0 1
   C        2.08861        -0.39176        -6.74013
   C        0.78399        -0.03978        -6.94782
   F       -0.09177        -0.96693        -7.37371
   C        0.31333         1.26299        -6.73214
   C        1.18851         2.21889        -6.29748
   C        2.54507         1.91094        -6.06553
   C        3.00477         0.58039        -6.29357
   C        4.36251         0.24967        -6.07720
   C        5.22649         1.21707        -5.64078
   C        4.75861         2.54211        -5.39779
   C        3.45506         2.89002        -5.60864
   C        5.87029         3.37351        -4.89744
   O        5.86377         4.55254        -4.63483
   C        7.00354         2.42046        -4.70659
   C        6.66074         1.18122        -5.38033
   C        7.54837         0.28311        -5.90788
   C        8.94462         0.49673        -5.90074
   N       10.07501         0.68159        -5.96774
   C        7.16808        -0.90489        -6.56235
   N        6.90239        -1.90263        -7.06358
   C        8.02243         2.74165        -3.87100
   C        8.94372         1.86869        -3.22922
   C       10.12717         2.23109        -2.63948
   C       10.83773         1.15557        -2.06130
   C       12.08024         1.17866        -1.38366
   C       12.77095         2.40298        -1.05002
   C       14.11021         2.59274        -0.83508
   C       14.42703         3.89760        -0.40738
   C       13.35209         4.73139        -0.28151
   S       11.90888         3.88852        -0.72207
   C       13.31932         6.14565         0.15960
  Cl       16.04471         4.38422        -0.07203
   C       12.58810        -0.06670        -1.00684
   C       11.91423        -1.29763        -1.23171
   C       10.64410        -1.30866        -1.85253
   C       10.15308        -0.07381        -2.24972
   S        8.61700         0.16160        -3.02483
   C        9.91857        -2.53701        -2.08887
   C        9.78506        -3.62601        -1.27227
   C        9.01641        -4.65175        -1.85871
   C        8.56757        -4.37118        -3.11983
   S        9.08448        -2.79655        -3.60046
   C        7.76189        -5.23006        -4.02293
  Cl        8.66932        -6.13273        -1.05595
   C       12.66413        -2.40401        -0.78910
   C       13.84998        -2.06506        -0.18158
   S       14.09726        -0.33233        -0.18551
   C       14.80297        -3.00846         0.29290
   N       14.65179        -4.29153        -0.01175
   C       15.76513        -4.91104         0.41869
   C       16.70407        -3.95075         1.02681
   C       17.92469        -4.63559         1.49269
   O       18.89854        -4.15847         2.02814
   C       17.64807        -6.04149         1.14083
   C       16.32572        -6.16243         0.48756
   N       16.05717        -7.45681         0.18902
   C       17.09905        -8.12944         0.61356
   C       18.12397        -7.31008         1.22784
   C       16.07773        -2.74010         1.00877
   C       16.50327        -1.47369         1.52999
   C       15.66104        -0.64742         2.17871
   C       15.92980         0.70499         2.53699
   C       14.96889         1.60201         2.91878
   C       15.42916         2.93201         3.01980
   C       14.67696         4.10179         3.27453
   C       13.23318         4.09737         3.34436
   C       12.41309         4.99075         3.97851
   C       11.04522         4.77098         3.71141
   C       10.79364         3.72323         2.87370
   S       12.27869         2.95947         2.42650
   C        9.49600         3.23173         2.34855
  Cl        9.80881         5.76271         4.38354
   C       15.40010         5.29132         3.35659
   C       16.80605         5.33971         3.18591
   C       17.54435         4.18387         2.85569
   C       16.82579         3.00495         2.76821
   S       17.49119         1.45697         2.33614
   C       18.93998         4.32353         2.48405
   C       19.91832         5.02821         3.12574
   C       21.09540         5.14080         2.35716
   C       21.03569         4.53043         1.13712
   S       19.49510         3.77756         0.92533
   C       22.05842         4.52431         0.06332
  Cl       22.47166         6.02201         2.90150
   C       17.30163         6.65475         3.21942
   C       16.34137         7.61732         3.37272
   S       14.75458         6.89929         3.56032
   C       16.55982         9.01925         3.44410
   C       17.67250         9.66796         3.00786
   C       18.04169        10.99693         3.57598
   O       17.31434        11.76593         4.15762
   C       19.49582        11.11486         3.34155
   C       20.36906        12.05673         3.80409
   C       21.74341        11.93210         3.49869
   C       22.19230        10.82391         2.72119
   C       23.56624        10.69657         2.43976
   C       24.43753        11.63912         2.91062
   C       24.01590        12.73882         3.67085
   C       22.68595        12.87569         3.95646
   F       25.74967        11.52079         2.64261
   C       21.26485         9.87096         2.24081
   C       19.93837        10.02071         2.54142
   C       18.77678         9.22129         2.17749
   C       18.68903         8.38670         1.09412
   C       17.45857         7.85845         0.65359
   N       16.45951         7.46776         0.24612
   C       19.78389         7.99834         0.29939
   N       20.64765         7.61608        -0.35339
   H        2.41647        -1.40364        -6.92007
   H       -0.72697         1.48188        -6.91339
   H        0.84944         3.22909        -6.12427
   H        4.68641        -0.76451        -6.25082
   H        3.12097         3.90063        -5.42750
   H        8.09307         3.78842        -3.59247
   H       10.49314         3.24002        -2.68070
   H       14.86957         1.85729        -1.01907
   H       14.32732         6.55371         0.16301
   H       12.90610         6.22379         1.16670
   H       12.69399         6.74046        -0.50360
   H       10.17714        -3.68400        -0.27388
   H        8.36800        -6.05404        -4.40125
   H        7.39345        -4.65366        -4.86739
   H        6.91968        -5.65809        -3.48072
   H       12.37762        -3.43121        -0.91503
   H       17.14215        -9.19775         0.49008
   H       19.04487        -7.66945         1.64253
   H       17.54317        -1.20669         1.39445
   H       14.65478        -0.97982         2.40158
   H       13.95806         1.29562         3.10990
   H       12.75368         5.76318         4.64193
   H        8.68231         3.79946         2.79233
   H        9.36091         2.17570         2.57851
   H        9.45990         3.34680         1.26463
   H       19.82274         5.42383         4.12095
   H       21.97825         5.44395        -0.51966
   H       21.91163         3.67826        -0.60268
   H       23.05690         4.47968         0.49424
   H       18.34813         6.88110         3.14787
   H       15.82296         9.61622         3.96888
   H       20.01820        12.88488         4.40138
   H       23.92490         9.86320         1.85611
   H       24.74917        13.45092         4.01475
   H       22.33838        13.71338         4.54210
   H       21.62665         9.03402         1.66387
*
