# ORCA input file
# SCF done       -252.961296259140          0.000588646101
! CAM-B3LYP def2-SVP def2/J RIJCOSX Grid4 TightSCF
%maxcore 5000
%tddft
    Mode sTDDFT
    Ethresh 5.0
    maxcore 5000
end

%pal
  nprocs 6
  end
* xyz 0 1
   C        2.76524         2.28276        -7.93571
   C        1.64710         3.03087        -8.17825
   F        1.61514         3.84589        -9.24879
   C        0.51818         2.98629        -7.34903
   C        0.53304         2.16523        -6.25599
   C        1.66013         1.37239        -5.95783
   C        2.79752         1.43022        -6.81493
   C        3.93689         0.63762        -6.54163
   C        3.93867        -0.18094        -5.44461
   C        2.80483        -0.22177        -4.58316
   C        1.68915         0.52558        -4.82709
   C        3.07832        -1.14360        -3.46348
   O        2.33257        -1.46298        -2.56679
   C        4.50114        -1.55846        -3.63495
   C        4.94094        -1.11463        -4.93775
   C        5.98998        -1.61750        -5.66224
   C        6.79510        -2.69274        -5.24172
   N        7.47267        -3.57728        -4.96382
   C        6.36983        -1.14518        -6.93379
   N        6.75174        -0.77830        -7.95284
   C        5.13552        -2.15816        -2.59287
   C        6.52403        -2.34641        -2.32696
   C        7.55792        -1.51787        -2.78261
   O        7.20350        -0.44289        -3.54828
   C        7.65977         0.83965        -3.14176
   C        8.92315        -1.78706        -2.50041
   O        9.88294        -1.00094        -3.09853
   C       10.02325        -1.20052        -4.49956
   C        9.32034        -2.82200        -1.65227
   C        8.27754        -3.62055        -1.11391
   C        6.90584        -3.39651        -1.45403
   N        6.09567        -4.27813        -0.87417
   S        6.97618        -5.28775         0.01478
   N        8.42212        -4.65718        -0.29398
   C       10.68509        -3.14116        -1.34062
   C       11.82700        -2.47334        -1.69627
   C       13.01627        -3.09038        -1.25330
   C       14.34284        -2.64657        -1.44220
   C       14.67601        -1.49729        -2.25649
   C       15.68754        -0.59854        -2.06850
   C       15.78051         0.34772        -3.11103
   C       14.86235         0.18699        -4.10731
   S       13.83941        -1.16335        -3.75073
   C       14.67322         0.99084        -5.34158
  Cl       16.97010         1.59371        -3.11385
   C       15.34053        -3.40088        -0.83304
   C       15.07547        -4.57220        -0.07767
   C       13.74829        -5.01848         0.10701
   C       12.75061        -4.26251        -0.50053
   S       11.03886        -4.57132        -0.39658
   C       13.42041        -6.18686         0.89584
   C       12.42375        -7.09534         0.67398
   C       12.34380        -8.07530         1.68507
   C       13.25594        -7.92911         2.68988
   S       14.25510        -6.55054         2.38351
   C       13.44444        -8.76164         3.90481
  Cl       11.18294        -9.34614         1.64159
   C       16.26664        -5.19591         0.35047
   C       17.40937        -4.54426        -0.03180
   S       17.05090        -3.09431        -0.93868
   C       18.75933        -4.95904         0.21459
   C       19.85143        -4.16735        -0.16500
   O       19.51690        -2.98334        -0.72277
   C       20.37231        -2.25919        -1.58323
   C       21.19289        -4.57077         0.08357
   O       22.16196        -3.66508        -0.22047
   C       23.21410        -3.43689         0.70732
   C       21.49862        -5.81668         0.63955
   C       20.40538        -6.62312         1.04651
   C       19.04849        -6.19499         0.85028
   N       18.18041        -7.10615         1.28108
   S       18.98069        -8.37408         1.85968
   N       20.47525        -7.83433         1.59157
   C       22.84501        -6.30910         0.66919
   C       23.41425        -7.23107         1.48557
   C       24.66395        -7.91719         1.05190
   O       25.39469        -7.58371         0.14690
   C       24.78096        -9.09557         1.93164
   C       25.67869       -10.12246         1.87939
   C       25.57850       -11.17420         2.81779
   C       24.54130       -11.14214         3.79549
   C       24.44295       -12.19905         4.72131
   C       25.34261       -13.22691         4.66527
   C       26.37072       -13.27512         3.71402
   C       26.47977       -12.25839         2.80652
   F       25.25000       -14.23687         5.54941
   C       23.63112       -10.06015         3.83305
   C       23.75246        -9.04992         2.91778
   C       22.99233        -7.81946         2.73756
   C       22.19198        -7.22269         3.67576
   C       21.72185        -5.90472         3.52742
   N       21.38413        -4.81083         3.43360
   C       21.81645        -7.82157         4.89312
   N       21.46135        -8.27733         5.88518
   H        3.61479         2.33989        -8.59823
   H       -0.33555         3.59923        -7.59083
   H       -0.32449         2.11351        -5.60211
   H        4.78507         0.70517        -7.20443
   H        0.83815         0.47272        -4.16466
   H        4.47976        -2.52358        -1.80751
   H        7.33194         1.52313        -3.92327
   H        8.74365         0.88692        -3.03684
   H        7.19106         1.11787        -2.19292
   H       10.19409        -2.25616        -4.72294
   H       10.89454        -0.61820        -4.79323
   H        9.14499        -0.85622        -5.05135
   H       11.80683        -1.54812        -2.23682
   H       16.32587        -0.58212        -1.20551
   H       15.46725         1.72888        -5.42295
   H       13.71412         1.50848        -5.32110
   H       14.68992         0.35130        -6.22307
   H       11.78803        -7.09546        -0.19112
   H       13.12727        -8.21805         4.79513
   H       14.49308        -9.02612         4.02977
   H       12.85264        -9.67003         3.82236
   H       16.30280        -6.11154         0.90788
   H       19.70654        -1.62168        -2.16622
   H       20.92857        -2.91867        -2.25018
   H       21.07021        -1.63739        -1.02030
   H       24.15444        -3.85020         0.33869
   H       22.98055        -3.85681         1.68623
   H       23.31601        -2.35305         0.79627
   H       23.47290        -5.98863        -0.15698
   H       26.45574       -10.13501         1.12974
   H       23.66599       -12.19356         5.46971
   H       27.05156       -14.11146         3.71846
   H       27.26321       -12.27347         2.06380
   H       22.85169       -10.06091         4.57866
*
