# ORCA input file
# SCF done       -229.305719192092          0.000740501621
! CAM-B3LYP def2-SVP def2/J RIJCOSX Grid4 TightSCF
%maxcore 5000
%tddft
    Mode sTDDFT
    Ethresh 5.0
    maxcore 5000
end

%pal
  nprocs 6
  end
* xyz 0 1
   C       10.95900         1.02539        -5.15506
   C       11.11913         0.37713        -6.34794
   F       12.25153        -0.31017        -6.58115
   C       10.14158         0.39845        -7.35226
   C        8.98399         1.09236        -7.13421
   C        8.76553         1.77838        -5.92190
   C        9.77109         1.74214        -4.91199
   C        9.56978         2.41017        -3.68193
   C        8.40066         3.09068        -3.47236
   C        7.40768         3.14072        -4.49287
   C        7.57418         2.50085        -5.68703
   C        6.27456         3.96428        -4.02978
   O        5.23598         4.19358        -4.60538
   C        6.69864         4.51061        -2.70919
   C        7.90429         3.81693        -2.30717
   C        8.36855         3.66085        -1.02672
   C        7.70787         4.15302         0.11421
   N        7.20331         4.49256         1.08880
   C        9.52252         2.92257        -0.68973
   N       10.46214         2.34858        -0.36756
   C        5.98718         5.53025        -2.15932
   C        6.31976         6.42426        -1.10659
   S        5.01498         6.98329        -0.08475
   C        6.10190         7.88954         0.86888
   C        7.38794         7.82503         0.41460
   C        7.51939         6.99923        -0.72537
   C        8.80084         6.96491        -1.49149
   C        9.99504         7.20761        -0.56636
   C        9.79066         8.54818         0.18318
   O        9.70121         9.54833        -0.81184
   C        9.97722        10.85308        -0.37046
   C        8.55237         8.48114         1.08767
   N       10.17253         6.08137         0.31032
   C       11.36414         5.86143         0.95151
   C       11.51803         5.05015         2.00926
   C       12.77078         4.83969         2.67980
   S       13.10001         3.32611         3.48363
   C       14.63450         3.88894         4.03479
   C       14.88158         5.15865         3.62595
   C       13.82434         5.69884         2.84888
   C       13.91431         7.14629         2.50908
   C       14.33472         7.88168         3.79713
   C       15.73392         7.44681         4.28583
   O       15.83292         7.50080         5.69370
   C       15.85743         8.79463         6.24187
   C       16.08947         5.99883         3.88027
   N       14.25943         9.31678         3.62250
   C       13.04529         9.91658         3.49238
   C       12.82412        11.13118         2.95509
   C       11.53363        11.74137         2.89000
   S       10.09351        10.88953         3.38529
   C        9.10501        12.24808         3.00046
   C        9.83042        13.29071         2.51567
   C       11.21695        13.00373         2.44340
   C       12.22501        14.01358         1.98674
   C       11.55448        15.20903         1.30230
   C       10.33195        15.69429         2.10960
   O        9.90464        16.89621         1.49998
   C        9.03379        17.67922         2.27796
   C        9.25525        14.60418         2.08913
   N       12.49863        16.28427         1.09541
   C       13.13657        16.92992         2.07165
   C       13.96232        18.00108         1.87839
   C       14.66134        18.58075         2.94189
   C       15.58722        19.59504         2.92460
   C       15.89512        20.29189         4.19104
   O       15.56273        19.95350         5.30907
   C       16.64541        21.50395         3.80433
   C       17.08915        22.52779         4.58818
   C       17.76453        23.61415         3.98680
   C       17.95880        23.61673         2.57561
   C       18.62660        24.70464         1.98049
   C       19.07565        25.72834         2.76720
   C       18.89585        25.74364         4.15644
   C       18.24740        24.69624         4.74993
   F       19.71676        26.76889         2.19957
   C       17.49196        22.53673         1.78900
   C       16.85110        21.49114         2.39528
   C       16.30459        20.24234         1.85874
   C       16.62128        19.72542         0.62382
   C       16.35360        18.40737         0.21068
   N       16.20431        17.33305        -0.17031
   C       17.35499        20.42140        -0.35638
   N       17.92587        20.94049        -1.20785
   H       11.73071         0.98408        -4.40235
   H       10.32356        -0.13232        -8.27321
   H        8.21661         1.12332        -7.89294
   H       10.34947         2.37305        -2.93764
   H        6.80489         2.54278        -6.44338
   H        5.01241         5.68964        -2.61350
   H        5.73945         8.41745         1.72898
   H        8.77850         7.78108        -2.21984
   H        8.93694         6.03099        -2.03341
   H       10.89932         7.30519        -1.17798
   H       10.67264         8.74334         0.81715
   H        9.98021        11.47872        -1.26098
   H       10.95730        10.90767         0.11908
   H        9.21867        11.22592         0.32615
   H        8.28048         9.48598         1.41433
   H        8.81067         7.91433         1.98720
   H        9.34890         5.80356         0.82590
   H       12.21336         6.33976         0.48578
   H       10.66744         4.50062         2.38820
   H       15.25107         3.24297         4.62643
   H       12.94985         7.53736         2.18128
   H       14.65242         7.32730         1.72147
   H       13.61941         7.60993         4.58333
   H       16.48358         8.13406         3.85173
   H       16.03526         8.66681         7.30784
   H       14.91220         9.32572         6.09154
   H       16.66984         9.39097         5.80689
   H       16.69425         5.57278         4.68011
   H       16.69368         6.02530         2.96906
   H       15.01606         9.73476         3.09752
   H       12.21935         9.35877         3.91509
   H       13.64808        11.70227         2.55113
   H        8.04775        12.19297         3.16640
   H       12.93458        13.55986         1.29056
   H       12.79873        14.36041         2.85128
   H       11.19265        14.90697         0.31538
   H       10.63262        15.89366         3.15120
   H        8.89991        18.61224         1.73442
   H        9.46622        17.89130         3.26303
   H        8.05898        17.19933         2.41258
   H        8.86372        14.52969         1.06922
   H        8.42505        14.87504         2.74417
   H       12.55715        16.68318         0.17089
   H       13.01673        16.53156         3.07053
   H       14.07320        18.39642         0.88101
   H       14.39982        18.24380         3.94081
   H       16.92805        22.51065         5.65582
   H       18.78576        24.72492         0.91356
   H       19.27197        26.57865         4.72611
   H       18.09623        24.68482         5.81907
   H       17.64952        22.57108         0.72268
*
