# ORCA input file
# SCF done       -239.471536695111          0.000954988781
! CAM-B3LYP def2-SVP def2/J RIJCOSX Grid4 TightSCF
%maxcore 5000
%tddft
    Mode sTDDFT
    Ethresh 5.0
    maxcore 5000
end

%pal
  nprocs 6
  end
* xyz 0 1
   C       -0.11746         2.60983         1.93104
   C       -1.44488         2.98461         2.08113
   C       -2.34799         2.17381         2.75356
   C       -1.94703         0.96651         3.30658
   C       -0.62441         0.58397         3.16393
   C        0.29543         1.40106         2.46820
   C        1.59443         0.73800         2.44680
   C        2.75748         1.26453         1.94798
   C        2.86560         2.55480         1.38754
   N        3.02718         3.59203         0.92320
   C        4.01072         0.61802         1.94782
   N        5.05928         0.15007         1.91735
   C        1.39873        -0.58296         3.02538
   C        0.08648        -0.58588         3.65446
   C       -0.28504        -1.34965         4.72992
   C        0.57631        -2.26463         5.36976
   N        1.26169        -2.98900         5.93887
   C       -1.52828        -1.23392         5.38443
   N       -2.52440        -1.18786         5.95231
   C        2.27384        -1.63270         2.89309
   C        2.00259        -3.00597         2.96552
   S        0.41108        -3.71360         2.77742
   C        1.01917        -5.34781         2.82638
   C        2.39432        -5.32538         2.98802
   C        2.95915        -4.02556         3.04535
   C        4.36211        -4.06374         3.20201
   C        4.83161        -5.34364         3.25810
   C        6.23301        -5.74818         3.41939
   O        7.15763        -4.98330         3.51479
   O        6.34683        -7.08302         3.44641
   C        7.66359        -7.59047         3.60464
   S        3.59277        -6.56753         3.12552
   C        0.14343        -6.44309         2.68496
   C       -1.23323        -6.38665         2.51752
   C       -1.78970        -7.65092         2.37055
   C       -0.83287        -8.68305         2.43100
   S        0.75179        -8.09244         2.67282
   C       -1.49592        -9.92055         2.24212
   C       -2.86889        -9.67354         2.06258
   C       -3.10097        -8.24165         2.14420
   C       -4.28905        -7.58473         2.02074
   C       -4.37661        -6.17788         2.09361
   N       -4.44101        -5.03448         2.14388
   C       -5.50491        -8.26693         1.80021
   N       -6.49285        -8.81927         1.61978
   C       -3.60350       -10.83651         1.82993
   C       -2.80321       -11.96210         1.83130
   S       -1.11490       -11.58234         2.13497
   C       -3.20148       -13.30268         1.57965
   C       -2.41990       -14.42457         1.59408
   C       -3.11281       -15.60305         1.23761
   C       -2.61234       -16.92092         1.18067
   C       -1.23687       -17.26222         1.47990
   C       -0.78662       -18.36827         2.14368
   C        0.62144       -18.43048         2.21552
   C        1.26337       -17.39107         1.60648
   S        0.10615       -16.29376         0.93379
   C        2.72095       -17.13389         1.49836
  Cl        1.44067       -19.72402         3.00127
   C       -3.52138       -17.90696         0.81805
   C       -4.88919       -17.65612         0.54036
   C       -5.39824       -16.34119         0.62826
   C       -4.48011       -15.34876         0.95704
   S       -4.85644       -13.65704         1.13637
   C       -6.79194       -16.02938         0.40052
   C       -7.31776       -14.92135        -0.20501
   C       -8.72774       -14.91883        -0.20897
   C       -9.29615       -16.00247         0.39948
   S       -8.06634       -17.06705         0.98448
   C      -10.73433       -16.31754         0.58260
  Cl       -9.64061       -13.64753        -0.92411
   C       -5.56030       -18.82508         0.12547
   C       -4.77733       -19.95158         0.12359
   S       -3.12399       -19.58291         0.58350
   C       -5.20728       -21.23126        -0.31501
   C       -4.61799       -22.44162        -0.10949
   C       -4.84880       -23.62716        -0.93275
   C       -5.92596       -23.87773        -1.73694
   C       -7.05224       -23.03683        -1.86655
   N       -7.99758       -22.40212        -2.01343
   C       -6.07606       -25.04506        -2.51658
   N       -6.25816       -25.96811        -3.17338
   C       -3.69932       -24.49963        -0.73230
   C       -2.89205       -23.96753         0.29998
   C       -1.72095       -24.60046         0.68120
   C       -1.35824       -25.76788         0.02656
   C       -2.15247       -26.29721        -0.98138
   C       -3.32815       -25.67296        -1.37058
   C       -3.54176       -22.77611         0.81880
   C       -3.37443       -22.24591         2.06779
   C       -2.34828       -22.63165         2.95481
   N       -1.52274       -22.89224         3.70781
   C       -4.27268       -21.31846         2.64100
   N       -5.01458       -20.61394         3.16034
   H        0.56708         3.25155         1.40132
   H       -1.77791         3.92189         1.66234
   H       -3.37739         2.48364         2.84808
   H       -2.65692         0.33885         3.82063
   H        3.29390        -1.40415         2.61291
   H        5.00513        -3.20539         3.27114
   H        7.57073        -8.67289         3.62603
   H        8.10114        -7.22183         4.53452
   H        8.29320        -7.27343         2.77081
   H       -1.77641        -5.45877         2.50301
   H       -4.66439       -10.87995         1.66045
   H       -1.37846       -14.39627         1.85726
   H       -1.42538       -19.09612         2.60899
   H        3.01835       -16.32571         2.16742
   H        2.98714       -16.84483         0.48324
   H        3.26975       -18.03129         1.77283
   H       -6.73371       -14.15081        -0.67253
   H      -10.98966       -16.34356         1.64175
   H      -10.97070       -17.29246         0.15814
   H      -11.34042       -15.55980         0.09265
   H       -6.59667       -18.85584        -0.15629
   H       -6.07559       -21.19757        -0.96054
   H       -1.09542       -24.19258         1.45887
   H       -0.44473       -26.27005         0.30589
   H       -1.85125       -27.20854        -1.47482
   H       -3.92969       -26.09668        -2.15792
*
