# ORCA input file
# SCF done       -258.032510244225          0.000833997636
! CAM-B3LYP def2-SVP def2/J RIJCOSX Grid4 TightSCF
%maxcore 5000
%tddft
    Mode sTDDFT
    Ethresh 5.0
    maxcore 5000
end

%pal
  nprocs 6
  end
* xyz 0 1
   C        1.20164        -2.75577        -0.54468
   C        1.15842        -2.36651         0.75925
   C        0.92478        -0.98236         0.87309
   C        0.79647        -0.35826        -0.37225
   S        0.96049        -1.45737        -1.66713
   C        0.56590         1.03294        -0.16261
   C        0.55022         1.27705         1.21568
   C        0.77421         0.01776         1.91489
   C        0.82990        -0.17342         3.26434
   C        0.66369         0.88504         4.18212
   N        0.53509         1.73768         4.93817
   C        1.05679        -1.44328         3.83531
   N        1.23837        -2.47538         4.30085
   C        0.33552         2.62251         1.52706
   C        0.18969         3.39620         0.39464
   S        0.31541         2.45027        -1.07992
   C       -0.03155         4.79944         0.32575
   C       -0.16684         5.57058        -0.79281
   C       -0.37027         6.94319        -0.51614
   C       -0.50991         8.00540        -1.43270
   C       -0.53991         7.80281        -2.86680
   C        0.00699         8.59590        -3.83469
   C       -0.25777         8.12884        -5.14029
   C       -1.01309         6.99394        -5.19258
   S       -1.40513         6.47183        -3.58941
   C       -1.48083         6.23900        -6.38197
  Cl        0.33364         8.93733        -6.54037
   C       -0.63070         9.28031        -0.88866
   C       -0.62538         9.53849         0.50418
   C       -0.48150         8.47640         1.41949
   C       -0.37120         7.20216         0.87748
   S       -0.14907         5.73994         1.79776
   C       -0.44373         8.71734         2.84789
   C        0.21552         9.70774         3.51758
   C        0.02426         9.63961         4.91475
   C       -0.77660         8.61429         5.32605
   S       -1.30928         7.69314         3.96061
   C       -1.18967         8.24811         6.70388
  Cl        0.74963        10.76936         5.99492
   C       -0.82827        10.90970         0.78879
   C       -0.97393        11.68547        -0.32519
   S       -0.86868        10.74691        -1.80093
   C       -1.16131        13.09388        -0.38588
   C       -1.43624        13.86319        -1.49729
   C       -1.53241        15.22100        -1.18216
   C       -1.31722        15.48098         0.17961
   S       -1.01525        14.05980         1.07558
   C       -1.41311        16.88135         0.39477
   C       -1.69805        17.50382        -0.82971
   C       -1.78879        16.48182        -1.86136
   C       -2.06153        16.66702        -3.18445
   C       -2.30097        17.94539        -3.73149
   N       -2.49925        18.98135        -4.18109
   C       -2.12785        15.59223        -4.09633
   N       -2.18495        14.72343        -4.84231
   C       -1.79804        18.89294        -0.72214
   C       -1.58221        19.32736         0.56943
   S       -1.26166        17.99988         1.67565
   C       -1.58665        20.66681         1.04608
   C       -1.28210        21.10870         2.30200
   C       -1.37263        22.51317         2.44683
   C       -1.08421        23.28846         3.58845
   C       -0.73646        22.66469         4.84899
   C       -1.30223        21.56411         5.42613
   C       -0.70868        21.23355         6.66365
   C        0.30756        22.06178         7.04209
   S        0.54337        23.29449         5.84978
   C        1.14653        22.01049         8.26542
  Cl       -1.23774        19.88981         7.60372
   C       -1.16334        24.66753         3.43803
   C       -1.54533        25.29883         2.22834
   C       -1.83606        24.52337         1.08778
   C       -1.74990        23.14458         1.23581
   S       -2.00932        21.97981        -0.03396
   C       -2.18612        25.14492        -0.17366
   C       -1.61462        26.23713        -0.76067
   C       -2.21297        26.56459        -1.99658
   C       -3.23711        25.74128        -2.36455
   S       -3.47695        24.51943        -1.16266
   C       -4.08957        25.80244        -3.57836
  Cl       -1.67977        27.89545        -2.95218
   C       -1.62122        26.70502         2.36925
   C       -1.29195        27.14828         3.61802
   S       -0.87663        25.83420         4.69962
   C       -1.24690        28.49035         4.08727
   C       -0.89705        28.92633         5.34816
   C       -0.95116        30.31883         5.45257
   C       -1.34567        30.93964         4.26159
   S       -1.65012        29.81887         3.01092
   C       -1.36536        32.34962         4.47207
   C       -0.98226        32.60911         5.79229
   C       -0.70813        31.34747         6.45640
   C       -0.30455        31.15764         7.74544
   C       -0.09463        32.23353         8.63340
   N        0.07820        33.10169         9.36236
   C       -0.06711        29.87343         8.27913
   N        0.12785        28.83318         8.72053
   C       -0.97168        33.98588         6.08830
   C       -1.34004        34.72743         5.00748
   S       -1.70863        33.77854         3.60491
   H        1.36304        -3.74198        -0.93131
   H        1.28793        -3.03870         1.58758
   H        0.28612         3.03322         2.51949
   H       -0.10605         5.15960        -1.78381
   H        0.60954         9.46262        -3.63705
   H       -1.09036         6.70248        -7.28441
   H       -2.56951         6.23411        -6.43023
   H       -1.14262         5.20432        -6.33827
   H        0.85211        10.43400         3.04699
   H       -0.76534         8.95304         7.41439
   H       -0.84557         7.24445         6.95149
   H       -2.27516         8.26166         6.79577
   H       -0.89605        11.30892         1.78431
   H       -1.55813        13.44055        -2.47840
   H       -2.00981        19.56786        -1.53184
   H       -0.96846        20.44648         3.08836
   H       -2.14000        21.03138         5.01571
   H        0.83755        21.17468         8.88813
   H        1.04755        22.93370         8.83523
   H        2.19763        21.88900         8.00544
   H       -0.77007        26.76514        -0.35807
   H       -5.06588        26.22665        -3.34052
   H       -4.24561        24.80570        -3.98593
   H       -3.61504        26.42840        -4.33044
   H       -1.93188        27.36762         1.58200
   H       -0.61770        28.25164         6.13731
   H       -0.70833        34.40825         7.04067
   H       -1.42153        35.79364         4.93889
*
