# ORCA input file
# SCF done       -195.822410671999          0.000633253320
! CAM-B3LYP def2-SVP def2/J RIJCOSX Grid4 TightSCF
%maxcore 5000
%tddft
    Mode sTDDFT
    Ethresh 5.0
    maxcore 5000
end

%pal
  nprocs 6
  end
* xyz 0 1
   C        0.17206        -2.17609        -3.37177
   C       -0.74234        -1.49067        -4.11221
   C       -0.89303        -0.17071        -3.64542
   C       -0.07117         0.10378        -2.54590
   S        0.87408        -1.24237        -2.09186
   C       -0.28922         1.45185        -2.14050
   C       -1.24992         2.02013        -2.98712
   C       -1.66076         1.01846        -3.96450
   C       -2.57344         1.17652        -4.96592
   C       -3.25725         2.39316        -5.17144
   N       -3.81391         3.38214        -5.33574
   C       -2.89273         0.13594        -5.86339
   N       -3.15427        -0.70767        -6.59452
   C       -1.53790         3.34854        -2.66960
   C       -0.80026         3.79128        -1.58809
   S        0.26592         2.54591        -0.95387
   C       -0.83008         5.07511        -0.98484
   C       -0.07847         5.52183         0.08548
   C       -0.37478         6.84509         0.41454
   C       -1.36132         7.40693        -0.41252
   S       -1.92195         6.31031        -1.59615
   C       -1.59418         8.74239         0.00402
   C       -0.75218         9.02561         1.09245
   C        0.04149         7.84253         1.38755
   C        0.97382         7.69798         2.37223
   C        1.29082         8.74529         3.26285
   N        1.54939         9.59705         3.98559
   C        1.67922         6.49147         2.56510
   N        2.25277         5.51120         2.72303
   C       -0.91232        10.32199         1.58096
   C       -1.87183        11.02509         0.87584
   S       -2.58451        10.06865        -0.41686
   C       -2.30824        12.35493         1.10001
   C       -3.30456        13.04131         0.43035
   C       -3.47845        14.33024         0.93383
   C       -2.60287        14.62782         1.99185
   S       -1.56812        13.32220         2.36901
   C       -2.86573        15.94673         2.43949
   C       -3.91049        16.48252         1.66752
   C       -4.32701        15.48676         0.69235
   C       -5.30739        15.61064        -0.24735
   C       -6.06628        16.79182        -0.38720
   N       -6.68292        17.75129        -0.50407
   C       -5.62521        14.56555        -1.14039
   N       -5.88321        13.71549        -1.86524
   C       -4.25660        17.77933         2.04634
   C       -3.48149        18.23515         3.09687
   S       -2.30267        17.04099         3.62413
   C       -3.56216        19.48991         3.75138
   C       -2.75768        19.96351         4.77147
   C       -3.14076        21.23812         5.18826
   C       -4.24819        21.73580         4.48137
   S       -4.81235        20.64123         3.29807
   C       -4.56766        23.02136         4.98771
   C       -3.65944        23.33832         6.01119
   C       -2.73000        22.23097         6.16922
   C       -1.69347        22.14130         7.05079
   C       -1.38927        23.17810         7.95802
   N       -1.14120        24.02074         8.69498
   C       -0.85774        21.00621         7.11184
   N       -0.17938        20.08331         7.16443
   C       -3.90156        24.58685         6.58538
   C       -4.98802        25.21801         6.00978
   S       -5.71962        24.25649         4.73239
   C       -5.53282        26.48397         6.34681
   C       -6.64398        27.09795         5.80075
   C       -6.89449        28.33886         6.38878
   C       -5.96622        28.66892         7.38480
   S       -4.78429        27.45730         7.60467
   C       -6.31165        29.94336         7.91927
   C       -7.45562        30.40912         7.26035
   C       -7.86468        29.42235         6.27837
   C       -8.93194        29.48392         5.43104
   C       -9.81624        30.58300         5.41363
   N      -10.53879        31.47316         5.39642
   C       -9.22332        28.44992         4.51670
   N       -9.45825        27.60951         3.77280
   C       -7.86944        31.67065         7.72956
   C       -7.04708        32.12643         8.71456
   S       -5.75193        31.04137         9.09947
   H        0.48824        -3.19244        -3.49547
   H       -1.27500        -1.91343        -4.94426
   H       -2.24342         3.97252        -3.18838
   H        0.64319         4.90381         0.58891
   H       -0.37026        10.74548         2.40745
   H       -3.86851        12.60851        -0.37643
   H       -5.02945        18.37343         1.59248
   H       -1.93982        19.39664         5.17894
   H       -3.32909        25.02444         7.38349
   H       -7.23114        26.65119         5.01852
   H       -8.72255        32.21299         7.36507
   H       -7.11712        33.05000         9.25339
*
