# ORCA input file
# SCF done       -268.886981393549          0.000970804413
! CAM-B3LYP def2-SVP def2/J RIJCOSX Grid4 TightSCF
%maxcore 5000
%tddft
    Mode sTDDFT
    Ethresh 5.0
    maxcore 5000
end

%pal
  nprocs 6
  end
* xyz 0 1
   C        0.41797        -4.32790        -6.27371
   C        1.73090        -4.05723        -6.41067
   C        2.22926        -3.18664        -5.39646
   C        3.53984        -2.70900        -5.22283
   C        4.64134        -3.09587        -6.08329
   C        5.65864        -2.30972        -6.54124
   C        6.60312        -3.02815        -7.30637
   C        6.33422        -4.35888        -7.43409
   S        4.86796        -4.74617        -6.59820
   C        7.10509        -5.40207        -8.15672
  Cl        7.97909        -2.26879        -8.01137
   C        3.74852        -1.84745        -4.14941
   C        2.73312        -1.47312        -3.23771
   C        1.42261        -1.95496        -3.40869
   C        1.20752        -2.79354        -4.50075
   S       -0.31179        -3.53926        -4.91983
   C        0.34003        -1.62617        -2.50255
   C       -0.96132        -1.36231        -2.81873
   C       -1.76647        -1.13393        -1.68165
   C       -1.10692        -1.22954        -0.49194
   S        0.56093        -1.60048        -0.77241
   C       -1.63636        -1.05836         0.88468
  Cl       -3.44419        -0.76534        -1.80588
   C        3.22736        -0.60501        -2.22853
   C        4.55665        -0.33425        -2.32957
   S        5.27377        -1.13425        -3.71473
   C        5.37635         0.49422        -1.47177
   C        6.61878         0.95246        -1.92707
   C        7.39175         1.75090        -1.11809
   C        6.96155         2.04961         0.18561
   C        5.73745         1.59153         0.65117
   C        4.94672         0.82797        -0.18273
   C        7.98512         2.83329         0.84025
   C        9.04229         3.03808        -0.06341
   C        8.75777         2.35117        -1.38487
   C        8.73378         3.42769        -2.48992
   C        8.40575         2.94196        -3.89578
   C        9.73254         1.18733        -1.66441
   C       11.19136         1.57132        -1.87380
   C       10.10545         3.83128         0.29759
   C       10.17238         4.36911         1.59242
   C        9.12859         4.11696         2.49163
   C        8.03112         3.36975         2.11933
   C       11.30584         5.19636         1.93891
   C       11.68980         5.51570         3.18730
   C       12.78404         6.38598         3.53445
   C       13.48394         7.18323         2.68223
   C       14.50886         8.04886         3.16915
   C       15.24055         8.87223         2.32921
   C       16.22964         9.73392         2.82499
   N       17.02750        10.44663         3.24599
   C       15.02693         8.88429         0.94332
   N       14.83800         8.88209        -0.19077
   C       14.72783         8.01602         4.58340
   C       13.99868         7.19013         5.37317
   O       13.04190         6.37509         4.86926
   C       14.17099         7.06940         6.81965
   C       14.57277         8.17181         7.58230
   C       14.71779         8.02452         8.94066
   C       14.49269         6.78056         9.55534
   C       14.09247         5.68680         8.80321
   C       13.92181         5.84325         7.44131
   C       14.72572         6.92243        10.97775
   C       15.06441         8.26003        11.24396
   C       15.09337         9.06689         9.96673
   C       14.06070        10.20961         9.99958
   C       12.64209         9.71884        10.26296
   C       16.49493         9.64565         9.69759
   C       17.57774         8.57479         9.64484
   C       15.31436         8.67836        12.52809
   C       15.24719         7.75437        13.58054
   C       14.94500         6.41676        13.29284
   C       14.67226         5.99494        12.00731
   C       15.47827         8.13074        14.95794
   C       15.40442         9.37834        15.45434
   C       15.61507         9.71462        16.82999
   C       16.12170         8.95741        17.84489
   C       16.16852         9.62640        19.09369
   C       16.65146         9.13568        20.32140
   C       17.28012         7.83211        20.40548
   C       18.18902         7.28805        19.54461
   C       18.59261         5.99042        19.92822
   C       18.00182         5.52899        21.06760
   S       16.92040         6.72463        21.70122
   C       18.18713         4.22349        21.75030
  Cl       19.73904         5.07972        19.01807
   C       16.51156         9.97143        21.42425
   C       15.96851        11.27597        21.34692
   C       15.52937        11.78600        20.11212
   C       15.63102        10.93420        19.01571
   S       15.16166        11.31639        17.38394
   C       14.99941        13.12794        19.96224
   C       13.94399        13.52901        19.19576
   C       13.73071        14.92394        19.24627
   C       14.61446        15.60417        20.03095
   S       15.74227        14.49911        20.74207
   C       14.68740        17.06103        20.30827
  Cl       12.45114        15.68733        18.38189
   C       15.93769        11.90382        22.62709
   C       16.45120        11.13105        23.60496
   S       17.00434         9.58992        23.05186
   H       -0.19606        -4.94669        -6.89816
   H        2.33446        -4.45190        -7.20639
   H        5.72482        -1.25080        -6.37519
   H        7.99230        -4.95827        -8.60147
   H        6.50072        -5.85040        -8.94484
   H        7.40947        -6.19600        -7.47539
   H       -1.33657        -1.29644        -3.82272
   H       -2.68835        -0.78799         0.83937
   H       -1.09123        -0.27663         1.41254
   H       -1.53341        -1.98203         1.45381
   H        2.60045        -0.17794        -1.46887
   H        6.94811         0.66264        -2.91327
   H        5.40978         1.82087         1.65399
   H        3.99834         0.45658         0.17300
   H        9.70857         3.91788        -2.50344
   H        7.99739         4.18124        -2.19691
   H        9.08943         2.16103        -4.21727
   H        8.49541         3.77432        -4.59096
   H        7.38802         2.56723        -3.95340
   H        9.37390         0.65268        -2.54525
   H        9.66803         0.49632        -0.81918
   H       11.30205         2.28952        -2.68168
   H       11.76176         0.68202        -2.13416
   H       11.61946         1.98887        -0.96680
   H       10.90148         4.05182        -0.39767
   H        9.16292         4.54766         3.48022
   H        7.21633         3.21210         2.80997
   H       11.88422         5.55934         1.09944
   H       11.17454         5.10438         4.04384
   H       13.25851         7.18306         1.62888
   H       15.49815         8.63761         5.00906
   H       14.73531         9.12735         7.10760
   H       13.91141         4.73056         9.27019
   H       13.60831         5.00546         6.83691
   H       14.09111        10.73582         9.04335
   H       14.34922        10.91763        10.77898
   H       12.32326         9.02711         9.48622
   H       11.95276        10.55983        10.27851
   H       12.58376         9.20801        11.22162
   H       16.73324        10.36272        10.48572
   H       16.47377        10.18667         8.74947
   H       17.63856         8.04144        10.59105
   H       18.54376         9.03170         9.44405
   H       17.36861         7.85407         8.85732
   H       15.58088         9.70483        12.72816
   H       14.90835         5.70602        14.10612
   H       14.42699         4.96222        11.80925
   H       15.68176         7.31089        15.63404
   H       15.13393        10.20644        14.81415
   H       16.44570         7.94187        17.71585
   H       18.59276         7.80241        18.69207
   H       18.87660         3.60593        21.17999
   H       17.23609         3.70056        21.84395
   H       18.58926         4.36950        22.75242
   H       13.31379        12.86118        18.63883
   H       13.87905        17.57206        19.79124
   H       15.63869        17.46995        19.96883
   H       14.60238        17.25350        21.37730
   H       15.53853        12.88569        22.80011
   H       16.54261        11.36405        24.64771
*
