# ORCA input file
# SCF done       -200.851318909492          0.000791804503
! CAM-B3LYP def2-SVP def2/J RIJCOSX Grid4 TightSCF
%maxcore 5000
%tddft
    Mode sTDDFT
    Ethresh 5.0
    maxcore 5000
end

%pal
  nprocs 6
  end
* xyz 0 1
   C        5.34796         7.26218         5.21741
   C        6.43481         6.57985         4.73634
   C        7.71138         6.60455         5.33724
   N        8.77166         6.57980         5.77663
   C        6.44670         5.74846         3.59694
   N        6.53903         5.05514         2.68562
   C        5.33805         8.09655         6.41541
   C        4.01217         8.57403         6.62601
   C        3.69181         9.38825         7.67371
   C        4.70632         9.77679         8.57692
   C        6.03601         9.30702         8.37381
   C        6.33522         8.45999         7.28117
   C        7.04149         9.70541         9.27769
   C        6.74981        10.52899        10.33122
   C        5.44032        10.99068        10.53005
   C        4.43984        10.62186         9.67184
   C        3.14220         8.06122         5.56023
   O        1.94395         8.25601         5.44304
   C        4.00425         7.27795         4.66449
   C        3.60507         6.71691         3.48205
   C        2.33681         6.71392         2.87153
   C        2.12371         6.16471         1.61109
   C        0.81146         6.26787         1.16747
  Cl        0.35127         5.79802        -0.41717
   C       -0.02853         6.87531         2.09316
   S        0.85029         7.36398         3.51006
   C       -1.42104         7.17917         2.03591
   C       -2.50149         6.49794         1.50463
  Cl       -2.40680         4.95800         0.76066
   C       -3.73654         7.12435         1.72467
   C       -3.62833         8.29153         2.44540
   S       -1.97101         8.61899         2.84779
   C       -4.66813         9.15570         2.89016
   C       -6.01554         9.08726         2.61849
   C       -6.74820        10.08377         3.27083
  Cl       -8.44905        10.22729         3.11563
   C       -5.98679        10.93627         4.05616
   S       -4.30969        10.47968         3.95590
   C       -6.42101        12.00808         4.87727
   C       -5.64972        12.84788         5.66780
  Cl       -3.94023        12.75378         5.74654
   C       -6.38379        13.77906         6.40632
   C       -7.73960        13.67732         6.19722
   S       -8.10500        12.41416         5.05754
   C       -8.76761        14.43739         6.81258
   C      -10.12534        14.36253         6.59971
   C      -10.84947        15.23993         7.41045
  Cl      -12.55730        15.35025         7.35130
   C      -10.06823        16.00534         8.26767
   S       -8.38557        15.61636         8.03127
   C      -10.48985        16.95092         9.23336
   C       -9.69995        17.69473        10.11057
  Cl       -7.98877        17.60584        10.12128
   C      -10.40936        18.51564        10.97974
   C      -11.77781        18.43333        10.80083
   S      -12.16042        17.31885         9.50445
   C      -12.87201        19.06502        11.42836
   C      -12.93888        19.84236        12.55062
   C      -14.17987        20.41088        13.05757
   C      -15.35176        20.57299        12.36570
   C      -16.51360        21.15621        12.91441
   N      -17.49252        21.61310        13.30321
   C      -15.56370        20.23934        11.01097
   N      -15.81360        20.02162         9.91116
   C      -13.94025        20.86421        14.42181
   C      -12.55617        20.70383        14.70999
   C      -11.87003        20.12503        13.54247
   O      -10.67673        19.92500        13.45055
   C      -12.02364        21.05087        15.91797
   C      -12.87165        21.57693        16.91781
   C      -14.26062        21.73288        16.64100
   C      -14.78129        21.37018        15.37744
   C      -15.09876        22.25288        17.64825
   C      -14.59134        22.60283        18.86991
   C      -13.22355        22.44901        19.14109
   C      -12.38192        21.94751        18.18555
   H        2.67795         9.73465         7.80859
   H        7.35252         8.12526         7.15603
   H        8.04838         9.34730         9.12107
   H        7.52751        10.82947        11.01719
   H        5.22810        11.64036        11.36591
   H        3.42946        10.97429         9.81919
   H        4.35917         6.20792         2.89399
   H        2.91106         5.72129         1.02805
   H       -4.66734         6.71302         1.38245
   H       -6.46617         8.35314         1.97805
   H       -5.93869        14.49634         7.07119
   H      -10.57841        13.69720         5.88793
   H       -9.94758        19.14182        11.72078
   H      -13.81510        18.85126        10.93764
   H      -10.96860        20.92174        16.10905
   H      -15.83790        21.49486        15.20191
   H      -16.15094        22.37072        17.43445
   H      -15.24163        23.00038        19.63466
   H      -12.84026        22.72946        20.11080
   H      -11.32779        21.82649        18.38831
*
