# ORCA input file
# SCF done       -275.002072692760          0.000825906793
! CAM-B3LYP def2-SVP def2/J RIJCOSX Grid4 TightSCF
%maxcore 5000
%tddft
    Mode sTDDFT
    Ethresh 5.0
    maxcore 5000
end

%pal
  nprocs 6
  end
* xyz 0 1
   C        4.65163         3.05065        -1.76226
   C        4.56954         2.43977        -2.98535
   C        5.52088         1.51481        -3.46543
   N        6.26125         0.76153        -3.91535
   C        3.51426         2.59141        -3.91050
   N        2.68494         2.63621        -4.70335
   C        5.67432         2.78819        -0.75818
   C        5.28521         3.42763         0.45153
   C        6.04047         3.34971         1.58581
   C        7.25059         2.62163         1.55783
   C        7.65457         1.98924         0.34660
   C        6.84707         2.08228        -0.81032
   C        8.86804         1.27188         0.32808
   C        9.64452         1.17992         1.45098
   C        9.24452         1.80111         2.64352
   C        8.07309         2.50657         2.69567
   C        4.00966         4.13692         0.25144
   O        3.37966         4.70953         1.11628
   C        3.69788         3.99521        -1.19449
   C        2.81627         4.70985        -1.95371
   C        1.84919         5.67579        -1.58927
   C        1.33567         6.04867        -0.37264
   C        0.37556         7.07653        -0.44861
   C       -0.34996         7.65649         0.61718
   C       -0.11322         7.30781         2.00142
   C       -1.03540         7.20127         3.00646
   C       -0.44659         6.90403         4.25161
   C        0.91482         6.79370         4.22170
   S        1.49671         7.05494         2.61722
   C        1.84826         6.49651         5.33728
  Cl       -1.37901         6.70213         5.68531
   C       -1.29470         8.61336         0.26860
   C       -1.53297         9.03064        -1.06630
   C       -0.81571         8.44836        -2.13096
   C        0.12865         7.48465        -1.78716
   S        1.11226         6.59033        -2.90352
   C       -1.04780         8.80887        -3.51468
   C       -0.12942         8.92309        -4.51907
   C       -0.71611         9.23783        -5.76370
   C       -2.07532         9.35424        -5.73597
   S       -2.65760         9.07949        -4.13003
   C       -3.00894         9.66511        -6.84722
  Cl        0.22247         9.45518        -7.19075
   C       -2.47923        10.08116        -1.12474
   C       -2.96753        10.44936         0.09463
   S       -2.27744         9.50784         1.39682
   C       -3.91927        11.46950         0.37970
   C       -4.43583        11.80482         1.59560
   C       -5.35335        12.88230         1.54855
   C       -6.03727        13.48857         2.62057
   C       -5.85950        13.07486         3.99757
   C       -6.80980        12.99960         4.97578
   C       -6.28115        12.60390         6.22318
   C       -4.93446        12.38542         6.22413
   S       -4.29144        12.66379         4.64188
   C       -4.05731        11.96143         7.34409
  Cl       -7.27067        12.41820         7.62044
   C       -6.89242        14.53645         2.29256
   C       -7.07803        15.01162         0.97196
   C       -6.38854        14.41035        -0.09944
   C       -5.54970        13.34786         0.22461
   S       -4.56576        12.46149        -0.90901
   C       -6.50132        14.87218        -1.46856
   C       -6.50501        14.11747        -2.60650
   C       -6.55364        14.89729        -3.78230
   C       -6.57688        16.24400        -3.56906
   S       -6.55172        16.56957        -1.86874
   C       -6.62763        17.34654        -4.56218
  Cl       -6.57551        14.18765        -5.35120
   C       -7.99240        16.09354         0.92770
   C       -8.47020        16.47424         2.14591
   S       -7.81795        15.47277         3.42834
   C       -9.39779        17.53881         2.45621
   C       -9.92158        18.34734         1.43619
   C      -10.80661        19.34915         1.75320
   C      -11.14856        19.59892         3.09474
   C      -10.63563        18.80590         4.11100
   C       -9.77606        17.77849         3.78203
   C      -12.00583        20.76168         3.14490
   C      -12.19792        21.23104         1.83373
   C      -11.51031        20.32316         0.83556
   C      -10.53249        21.08600        -0.06954
   C       -9.49731        21.87196         0.72696
   C      -12.62470        19.62894         0.01591
   C      -12.16692        18.51805        -0.91983
   C      -12.95514        22.35099         1.60168
   C      -13.53586        23.04124         2.68146
   C      -13.33726        22.55399         3.98363
   C      -12.58210        21.42560         4.22045
   C      -14.30996        24.21950         2.40350
   C      -14.92667        25.01756         3.30889
   C      -15.66616        26.15898         2.91780
   C      -16.30699        27.00240         3.77115
   C      -16.36500        26.91383         5.22511
   O      -15.85116        26.07568         5.93430
   N      -17.12124        27.96143         5.74220
   C      -17.64424        28.83448         4.84196
   C      -18.42079        29.93634         5.09586
   C      -18.83659        30.38274         6.36219
   N      -19.20944        30.79787         7.36587
   C      -18.87346        30.72963         4.02089
   N      -19.24442        31.37900         3.15114
   S      -17.20997        28.39921         3.20598
   C      -17.30800        28.06746         7.16912
   H        5.71964         3.84099         2.49247
   H        7.18338         1.59735        -1.71287
   H        9.17107         0.79371        -0.59179
   H       10.57180         0.62736         1.42668
   H        9.86932         1.71817         3.52026
   H        7.76006         2.98760         3.61092
   H        2.88052         4.56259        -3.02625
   H        1.64150         5.57758         0.54145
   H       -2.09683         7.28609         2.86671
   H        2.38855         7.39529         5.63632
   H        2.57911         5.75097         5.02998
   H        1.29242         6.12425         6.19452
   H        0.93134         8.82566        -4.38281
   H       -2.44340         9.88839        -7.74837
   H       -3.63302        10.52188        -6.59617
   H       -3.66604         8.81822        -7.04481
   H       -2.78473        10.56982        -2.03143
   H       -4.16289        11.28175         2.49351
   H       -7.85656        13.17956         4.81691
   H       -3.26650        12.69202         7.51100
   H       -3.58687        11.00406         7.12113
   H       -4.64591        11.86239         8.25271
   H       -6.50910        13.04376        -2.61928
   H       -6.53349        16.93876        -5.56546
   H       -5.82041        18.05694        -4.38917
   H       -7.57153        17.88706        -4.49007
   H       -8.28365        16.56392         0.00819
   H       -9.61326        18.18845         0.41603
   H      -10.89739        18.99110         5.14158
   H       -9.36948        17.15020         4.56130
   H      -11.10006        21.76964        -0.70447
   H      -10.01669        20.37649        -0.71761
   H       -9.97941        22.60861         1.36586
   H       -8.82079        22.39143         0.05227
   H       -8.91135        21.20490         1.35545
   H      -13.13556        20.39885        -0.56676
   H      -13.34997        19.21442         0.72115
   H      -11.43023        18.87739        -1.63350
   H      -13.02241        18.14526        -1.47901
   H      -11.74385        17.68858        -0.35988
   H      -13.10637        22.71932         0.59677
   H      -13.78293        23.07288         4.81717
   H      -12.43872        21.06588         5.22811
   H      -14.39548        24.48128         1.35434
   H      -14.87514        24.81097         4.36569
   H      -15.72785        26.37831         1.85836
   H      -16.77316        27.22922         7.61683
   H      -18.36544        28.00784         7.42758
   H      -16.89941        29.00582         7.54493
*
