# ORCA input file
# SCF done       -218.519404632933          0.000913109647
! CAM-B3LYP def2-SVP def2/J RIJCOSX Grid4 TightSCF
%maxcore 5000
%tddft
    Mode sTDDFT
    Ethresh 5.0
    maxcore 5000
end

%pal
  nprocs 6
  end
* xyz 0 2
   C        1.47837         0.61983        -0.58799
   C        0.74684        -0.12771         0.29858
   C        0.87368        -1.52612         0.44101
   N        0.91936        -2.66092         0.61021
   C       -0.20561         0.35156         1.22317
   N       -0.98284         0.63705         2.01979
   C        2.51137         0.08518        -1.46791
   C        3.14638         1.17379        -2.12630
   C        4.17117         0.99122        -3.00918
   C        4.61272        -0.32117        -3.28747
   C        3.97564        -1.41968        -2.64179
   C        2.92015        -1.19655        -1.72766
   C        4.41949        -2.72616        -2.93101
   C        5.44373        -2.93872        -3.81310
   C        6.07117        -1.85584        -4.44690
   C        5.66437        -0.57482        -4.18963
   C        2.52350         2.43933        -1.70596
   O        2.87387         3.54490        -2.06731
   C        1.42092         2.06283        -0.78603
   C        0.44430         2.85332        -0.24557
   C        0.21355         4.24502        -0.31948
   C        0.91599         5.27180        -0.90304
   C        0.32735         6.53696        -0.72958
   C        0.81019         7.78156        -1.20139
   C        2.10178         7.87707        -1.84473
   C        3.25509         7.22267        -1.51281
   C        4.33055         7.55105        -2.36371
   C        4.02019         8.44549        -3.34753
   S        2.35886         8.91359        -3.22243
   C        4.89570         8.99310        -4.41402
  Cl        5.89831         6.87231        -2.16479
   C       -0.01536         8.87865        -1.00165
   C       -1.24692         8.80452        -0.30206
   C       -1.68517         7.58145         0.24729
   C       -0.89875         6.46616        -0.01361
   S       -1.24087         4.83978         0.48477
   C       -2.88877         7.52654         1.05071
   C       -3.30132         8.43165         1.98696
   C       -4.54029         8.08549         2.56695
   C       -5.08436         6.92859         2.08971
   S       -4.04228         6.23052         0.89550
   C       -6.36285         6.27426         2.46543
  Cl       -5.29214         9.06429         3.77039
   C       -1.91606        10.04804        -0.26716
   C       -1.22325        11.06462        -0.86555
   S        0.30486        10.50872        -1.52230
   C       -1.55516        12.44202        -0.99722
   S       -0.56826        13.43875        -2.02723
   C       -1.46091        14.87067        -1.58056
   C       -2.49102        14.55767        -0.70932
   C       -2.54020        13.19098        -0.37437
   C       -3.56379        12.63350         0.56260
   C       -4.37835        13.73217         1.23979
   C       -4.79386        14.78561         0.20673
   C       -5.75680        15.75515         0.83355
   O       -6.88089        15.95216         0.47311
   C       -3.53392        15.53059        -0.24571
   C       -1.06112        16.12327        -2.12508
   C       -0.76352        17.32861        -1.46941
   C       -0.28319        18.31964        -2.41380
   C       -0.12088        17.83728        -3.67548
   S       -0.53874        16.16410        -3.79659
   O       -2.03330        16.23598        -4.58066
   O       -0.03558        19.59751        -2.11876
   C       -0.77394        17.40838        -0.06816
   C       -0.22578        18.33376         0.78765
   C       -0.31293        18.23172         2.18240
   C       -0.73535        17.20584         3.00588
   C       -1.22593        17.60231         4.35698
   O       -1.13504        18.70085         4.86533
   C       -1.87327        16.40307         4.89502
   C       -2.58732        16.08090         6.00524
   S       -3.04766        14.39535         5.93061
   C       -2.25173        14.16344         4.41092
   C       -1.67579        15.31629         3.98268
   C       -0.87403        15.78039         2.86039
   C       -0.23196        14.91224         1.99743
   C        0.72146        15.27937         1.03544
   N        1.50713        15.52980         0.23435
   C       -0.44920        13.52631         2.06646
   N       -0.64266        12.39269         2.09121
   C       -2.95970        16.94750         7.14553
   H        4.63697         1.83885        -3.48975
   H        2.45934        -2.05154        -1.25977
   H        3.93448        -3.55684        -2.43957
   H        5.77671        -3.94328        -4.02723
   H        6.87816        -2.04183        -5.13988
   H        6.14318         0.26351        -4.67438
   H       -0.31021         2.33991         0.33910
   H        1.81364         5.10261        -1.46683
   H        3.35499         6.56151        -0.67257
   H        5.92419         8.69011        -4.23383
   H        4.84042        10.08028        -4.43405
   H        4.58693         8.62222        -5.39153
   H       -2.72462         9.28604         2.28969
   H       -6.87554         6.87124         3.21559
   H       -6.17850         5.27945         2.86962
   H       -7.00945         6.16682         1.59510
   H       -2.89769        10.15535         0.14655
   H       -3.05704        12.03141         1.32045
   H       -4.23741        11.97752         0.00289
   H       -3.78268        14.21275         2.01952
   H       -5.25845        13.29169         1.71107
   H       -5.27785        14.30067        -0.64591
   H       -5.33113        16.29094         1.70764
   H       -3.17392        16.12013         0.60393
   H       -3.76085        16.23093        -1.05337
   H        0.27808        18.37062        -4.51279
   H       -2.10401        15.59059        -5.29103
   H       -0.29632        19.78832        -1.20740
   H       -1.24363        16.56361         0.40512
   H        0.28702        19.21387         0.42351
   H       -0.10856        19.14650         2.73243
   H       -2.27215        13.19207         3.95951
   H       -2.57030        17.94839         6.97265
   H       -2.54622        16.55789         8.07548
   H       -4.04274        16.99567         7.25678
*
