# ORCA input file
# SCF done       -228.695548324764          0.000868154600
! CAM-B3LYP def2-SVP def2/J RIJCOSX Grid4 TightSCF
%maxcore 5000
%tddft
    Mode sTDDFT
    Ethresh 5.0
    maxcore 5000
end

%pal
  nprocs 6
  end
* xyz 0 1
   C        2.94317         2.56555         1.06470
   S        2.09550         1.12870         1.51067
   C        2.17471         3.47581         0.40147
   C        0.85445         3.02103         0.21736
   C       -0.42112         3.48546        -0.33478
   C       -0.67982         4.63662        -0.99209
   C       -2.08219         5.05763        -1.33460
   N       -2.80303         5.38512        -0.10835
   C        0.40772         5.60674        -1.36180
   N        0.05473         6.38341        -2.54205
   C        0.67075         1.75775         0.79255
   C       -0.67650         1.37516         0.64156
   S       -1.66651         0.03769         1.02806
   C       -1.36696         2.40428        -0.02411
   C       -2.70590         2.07807        -0.22870
   C       -3.04593         0.83227         0.28247
   C       -4.29235         0.16485         0.28127
   C       -5.42812         0.62391        -0.30978
   C       -6.67381        -0.05404        -0.27697
   C       -7.06875        -1.04374         0.58704
   C       -8.46170        -1.30773         0.37299
   C       -9.20295        -2.27535         1.06092
   N       -9.80776        -3.06767         1.63219
   C       -8.94426        -0.46299        -0.60666
   C       -7.85790         0.31529        -1.09156
   C       -7.87597         1.12247        -2.21097
   C       -9.08031         1.66539        -2.87400
   C       -8.68271         2.21138        -4.06481
   C       -7.25896         2.05413        -4.18666
   C       -6.77176         1.43099        -3.05734
   C       -6.49843         2.48089        -5.28050
   N       -5.87063         2.84036        -6.17332
   C      -10.37628         1.73116        -2.28211
   C      -11.52777         1.83866        -2.98311
   C      -12.84873         1.91317        -2.42267
   C      -13.93710         1.61385        -3.22608
   C      -15.23498         1.63217        -2.69872
   C      -16.47074         1.32922        -3.28574
   C      -16.63468         1.11209        -4.74874
   C      -17.91470         0.41078        -5.21211
   N      -18.17460        -0.80609        -4.46243
   C      -16.51609         2.49881        -5.47067
   N      -17.52448         3.47142        -5.14425
   C      -17.46276         1.47763        -2.25140
   C      -18.77027         1.14311        -2.19219
   C      -19.60243         1.44811        -0.99641
   C      -18.86070         2.03704         0.15420
   C      -17.53079         2.24480         0.12958
   C      -16.78670         1.96078        -1.03938
   C      -15.42990         2.00900        -1.31239
   C      -14.31153         2.33708        -0.51706
   C      -13.06565         2.28076        -1.05741
   C      -20.70234         2.35742        -1.51873
   C      -20.54842         3.67027        -1.69702
   C      -21.55310         4.55240        -2.23935
   C      -21.76626         5.83413        -1.81910
   C      -22.94730         6.34113        -2.46958
   C      -23.52790         7.59536        -2.27996
   N      -24.06819         8.59813        -2.11541
   C      -23.46622         5.35198        -3.27766
   C      -22.62290         4.20828        -3.18751
   C      -22.74681         3.03704        -3.92364
   C      -24.00266         2.45733        -4.46511
   C      -23.65940         1.32275        -5.16714
   C      -22.24374         1.16260        -5.10003
   C      -21.70021         2.18275        -4.33090
   C      -21.51460         0.11768        -5.67262
   N      -20.89499        -0.74982        -6.10480
   C      -25.28249         2.95719        -4.15003
   C      -26.47924         2.47799        -4.59960
   C      -27.70110         3.12407        -4.32022
   S      -29.22836         2.33482        -4.70717
   C      -27.89978         4.39074        -3.77668
   C      -29.23950         4.72935        -3.68620
   C      -30.04806         5.84908        -3.20828
   C      -29.60403         7.07347        -2.85204
   C      -30.55425         8.11213        -2.31375
   N      -29.86407         9.25131        -1.73437
   C      -28.17048         7.49047        -3.04224
   N      -27.27345         6.87571        -2.05828
   C      -30.09093         3.69025        -4.11584
   C      -31.41964         4.08227        -3.88527
   S      -32.99249         3.44391        -4.11014
   C      -31.42799         5.36949        -3.31218
   C      -32.72828         5.82314        -3.08018
   C      -33.69262         4.90400        -3.44539
   C      -35.12134         4.99644        -3.35138
   C      -35.80172         6.03936        -2.87580
   H        3.97826         2.65414         1.32956
   H        2.56544         4.42630         0.08942
   H       -2.56329         4.26894        -1.93887
   H       -2.03299         5.96693        -1.93654
   H       -2.84930         4.58309         0.51081
   H       -3.74971         5.67328        -0.32899
   H        1.35343         5.06060        -1.48580
   H        0.52447         6.31184        -0.53007
   H        0.02699         5.78661        -3.36209
   H        0.74495         7.10675        -2.70434
   H       -3.43395         2.69089        -0.72601
   H       -4.31004        -0.79690         0.77482
   H       -5.40382         1.57103        -0.82825
   H       -6.47574        -1.52656         1.34024
   H       -9.93482        -0.49081        -1.01806
   H       -9.29619         2.72540        -4.78058
   H       -5.75691         1.11336        -2.91398
   H      -10.40851         1.67518        -1.20291
   H      -11.47775         1.79953        -4.06391
   H      -13.77344         1.33104        -4.25654
   H      -15.78051         0.51679        -5.09292
   H      -17.81949         0.23582        -6.29769
   H      -18.77874         1.06732        -5.07471
   H      -17.40555        -1.45827        -4.57878
   H      -19.01009        -1.24953        -4.83524
   H      -16.54953         2.33039        -6.54997
   H      -15.54649         2.93474        -5.21649
   H      -18.44289         3.17777        -5.45327
   H      -17.55603         3.64320        -4.14558
   H      -19.26212         0.63159        -3.00309
   H      -20.08533         0.52009        -0.66095
   H      -19.45114         2.27761         1.02538
   H      -17.01515         2.63720         0.99424
   H      -14.45461         2.62656         0.51367
   H      -12.21059         2.54119        -0.45304
   H      -21.62120         1.86825        -1.80472
   H      -19.63890         4.15189        -1.35638
   H      -21.18700         6.38037        -1.09782
   H      -24.27774         5.48707        -3.96674
   H      -24.32194         0.64501        -5.67057
   H      -20.65598         2.35432        -4.15374
   H      -25.31235         3.79478        -3.47131
   H      -26.51926         1.58174        -5.20212
   H      -27.10405         5.02515        -3.43716
   H      -31.23863         7.61976        -1.60295
   H      -31.15942         8.48648        -3.14878
   H      -29.38625         8.98568        -0.88010
   H      -30.52238         9.98650        -1.50718
   H      -28.14012         8.58780        -3.01438
   H      -27.83524         7.15750        -4.03055
   H      -27.59367         7.09175        -1.11934
   H      -26.34954         7.28947        -2.15366
   H      -32.99046         6.77716        -2.66456
   H      -35.65798         4.12568        -3.70536
   H      -35.31481         6.92675        -2.51065
   H      -36.87620         6.03158        -2.83595
*
