# ORCA input file
# SCF done       -210.543913437031          0.000582142289
! CAM-B3LYP def2-SVP def2/J RIJCOSX Grid4 TightSCF
%maxcore 5000
%tddft
    Mode sTDDFT
    Ethresh 5.0
    maxcore 5000
end

%pal
  nprocs 6
  end
* xyz 0 1
   C        8.18405        -5.06786         4.26677
   S        7.56698        -3.47524         4.28276
   C        7.23752        -3.54181         2.56889
   C        7.57824        -4.77871         2.05144
   C        8.12802        -5.64322         3.03059
   C        8.59106        -7.03644         2.73782
   C        8.77859        -7.22810         1.23629
   C        7.52955        -6.74794         0.51022
   C        7.37962        -5.22372         0.62370
   O        6.14806        -4.80298         0.07710
   C        6.71443        -2.35139         1.98153
   C        6.67554        -2.05359         0.66945
   C        6.17023        -0.81297         0.14626
   C        6.84674        -0.14546        -0.89611
   C        8.07133        -0.64890        -1.52975
   O        8.70111        -1.63448        -1.27945
   S        8.56846         0.49720        -2.83398
   C        7.21169         1.62013        -2.50953
   O        7.01925         2.61834        -3.14214
   C        6.41589         1.08591        -1.39261
   C        5.29906         1.74705        -0.87550
   C        4.59174         1.06627         0.11709
   C        4.98907        -0.18572         0.59900
   C        4.00639        -0.80732         1.50037
   O        3.96750        -1.91741         1.94091
   S        2.68166         0.37903         1.82983
   C        3.36661         1.61144         0.72666
   O        2.86825         2.68466         0.55127
   C        4.91757         3.08244        -1.36720
   C        3.87859         3.24066        -2.24389
   C        3.60119         4.52341        -2.75773
   C        2.65080         4.95253        -3.68296
   C        1.61163         4.12081        -4.32849
   C        0.19120         4.69153        -4.12954
   N       -0.78157         3.76910        -4.68436
   C        1.89640         3.92482        -5.84852
   N        3.02479         3.08596        -6.14576
   C        2.89599         6.36150        -3.90657
   C        2.36683         7.23732        -4.78277
   C        2.83686         8.64999        -4.84707
   C        3.83247         9.03193        -3.80601
   C        4.39020         8.12919        -2.97263
   C        3.98372         6.77798        -3.01618
   C        4.41569         5.64454        -2.33353
   C        5.45115         5.44875        -1.40210
   C        5.69710         4.19089        -0.93858
   C        1.60433         9.51947        -4.87050
   C        1.11849        10.12942        -3.79976
   C       -0.09820        10.93682        -3.83354
   C       -1.34475        10.43315        -4.22562
   C       -1.59783         9.02112        -4.54664
   O       -0.82505         8.10336        -4.59400
   S       -3.34670         8.80104        -4.86502
   C       -3.72576        10.54422        -4.60694
   O       -4.83687        10.97392        -4.72011
   C       -2.48937        11.24641        -4.25512
   C       -2.45084        12.60433        -3.89878
   C       -1.19884        13.10137        -3.50593
   C       -0.06352        12.28699        -3.46796
   C        1.17344        12.97303        -3.07240
   O        2.27653        12.51132        -2.98353
   S        0.80102        14.69470        -2.74999
   C       -0.93941        14.51365        -3.19791
   O       -1.68309        15.44667        -3.25657
   C       -3.63293        13.44628        -3.89728
   S       -4.21644        14.08730        -2.39491
   C       -5.51631        14.90644        -3.20502
   C       -5.47067        14.68623        -4.56364
   C       -4.39888        13.85311        -4.95864
   C       -4.12622        13.50721        -6.38718
   C       -4.79233        14.52742        -7.30513
   C       -6.26565        14.64228        -6.93692
   C       -6.44126        15.28460        -5.55488
   O       -7.78350        15.19865        -5.12437
   C       -6.46657        15.69835        -2.47165
   C       -6.42527        15.89701        -1.15726
   H        8.55617        -5.50423         5.17284
   H        7.84127        -7.74503         3.10465
   H        9.51969        -7.23783         3.27567
   H        8.96196        -8.28077         1.01691
   H        9.64204        -6.65419         0.89397
   H        6.64667        -7.22450         0.94606
   H        7.56506        -7.01272        -0.54705
   H        8.14521        -4.74556        -0.00428
   H        5.43422        -5.06399         0.66980
   H        6.39421        -1.60819         2.70170
   H        7.10461        -2.72519        -0.05548
   H        3.29921         2.38463        -2.55822
   H        1.62385         3.12452        -3.87034
   H        0.08462         5.64396        -4.64753
   H        0.05002         4.87858        -3.05304
   H       -0.87471         2.94559        -4.09942
   H       -1.69009         4.20919        -4.75904
   H        2.06725         4.89565        -6.31578
   H        1.00188         3.47418        -6.28427
   H        2.89977         2.14862        -5.78294
   H        3.88832         3.46627        -5.77548
   H        1.57945         6.96962        -5.47047
   H        3.32912         8.77626        -5.82656
   H        4.10809        10.07471        -3.77361
   H        5.14160         8.42953        -2.25756
   H        6.05037         6.28500        -1.07560
   H        6.49712         4.01131        -0.23541
   H        1.08953         9.57986        -5.81922
   H        1.64801        10.10097        -2.85766
   H       -4.54083        12.51462        -6.59165
   H       -3.04905        13.46222        -6.56661
   H       -4.68791        14.21290        -8.34471
   H       -4.30768        15.49948        -7.19229
   H       -6.71063        13.64304        -6.91884
   H       -6.80760        15.23869        -7.67214
   H       -6.24686        16.36359        -5.62733
   H       -8.00778        14.26751        -5.00915
   H       -7.24877        16.13970        -3.07358
   H       -5.65263        15.46037        -0.54481
   H       -7.15869        16.50269        -0.65557
*
