# ORCA input file
# SCF done       -217.027536479298          0.000276770651
! CAM-B3LYP def2-SVP def2/J RIJCOSX Grid4 TightSCF
%maxcore 5000
%tddft
    Mode sTDDFT
    Ethresh 5.0
    maxcore 5000
end

%pal
  nprocs 6
  end
* xyz 0 1
   C       15.76177         2.24763        -7.44075
   C       16.54586         2.31613        -8.55881
   F       17.87819         2.42876        -8.42692
   C       16.01246         2.27396        -9.85508
   C       14.65924         2.16113       -10.01067
   C       13.80280         2.08901        -8.89213
   C       14.36519         2.13074        -7.58164
   C       13.52820         2.05413        -6.44483
   C       12.17401         1.94280        -6.61436
   C       11.61520         1.91904        -7.92733
   C       12.40279         1.98479        -9.04214
   C       10.14713         1.84577        -7.83887
   O        9.33837         1.76265        -8.72985
   C        9.84995         1.98422        -6.37740
   C       11.09383         1.82601        -5.64291
   C       11.21299         1.44022        -4.33897
   C       12.45114         1.22369        -3.69691
   N       13.43581         1.03843        -3.13864
   C       10.10878         1.12616        -3.51739
   N        9.24609         0.80335        -2.83306
   C        8.62325         2.35878        -5.95669
   C        8.30801         2.89896        -4.66766
   N        9.13833         3.72725        -4.06267
   C        8.49092         4.15989        -2.95392
   C        7.14629         3.57997        -2.87305
   C        6.44192         4.05200        -1.67072
   O        5.31272         3.81038        -1.31116
   C        7.46306         4.90738        -1.02581
   C        8.69285         4.95079        -1.85428
   N        9.64182         5.71797        -1.25997
   C        9.09975         6.12814        -0.14293
   C        7.74300         5.64965         0.07199
   C        7.02333         2.73421        -3.94535
   C        5.93259         1.87445        -4.24567
   C        6.00351         0.82160        -5.09152
   C        4.96874        -0.10333        -5.44801
   C        3.64673        -0.11725        -4.98341
   O        3.34974         0.86004        -4.11508
   C        2.10155         1.07827        -3.48715
   C        2.70039        -1.11876        -5.43412
   O        1.51746        -1.09258        -4.78235
   C        0.66983        -2.22447        -4.69688
   C        3.02211        -2.04920        -6.41552
   C        4.37184        -2.08549        -6.85034
   C        5.32267        -1.12453        -6.37000
   N        6.46718        -1.37396        -6.97208
   O        6.24306        -2.41572        -7.77445
   N        4.98776        -2.85227        -7.72463
   C        2.08532        -2.92047        -7.08877
   N        2.29057        -4.20766        -7.25178
   C        1.23566        -4.66429        -7.96342
   C        0.31138        -3.56963        -8.30770
   C       -0.85140        -4.08811        -9.04768
   O       -1.80949        -3.47442        -9.47120
   C       -0.56994        -5.52929        -9.12001
   C        0.71503        -5.83742        -8.44581
   N        0.97250        -7.16613        -8.50079
   C       -0.04054        -7.68744        -9.14634
   C       -1.04278        -6.72247        -9.55931
   C        0.85212        -2.43388        -7.75990
   C        0.42185        -1.07871        -7.81227
   C       -0.75587        -0.72453        -8.37859
   C       -1.27316         0.59614        -8.38326
   C       -2.57846         0.90618        -8.59747
   C       -3.00045         2.28629        -8.96758
   O       -2.35048         3.29812        -8.84569
   C       -4.34067         2.12403        -9.56150
   C       -5.12298         3.05874       -10.17700
   C       -6.37422         2.67111       -10.70521
   C       -6.79117         1.31228       -10.58962
   C       -8.03646         0.93187       -11.12635
   C       -8.81681         1.87054       -11.74240
   C       -8.42524         3.21112       -11.86472
   C       -7.21933         3.59772       -11.35003
   F      -10.00598         1.50966       -12.25475
   C       -5.96398         0.36579        -9.94135
   C       -4.75949         0.76658        -9.42951
   C       -3.73343         0.03484        -8.69364
   C       -3.90750        -1.15217        -8.03330
   C       -2.99937        -1.66668        -7.08428
   N       -2.33383        -2.08496        -6.24695
   C       -5.07812        -1.93488        -8.12831
   N       -6.00980        -2.60229        -8.17768
   H       16.20686         2.28010        -6.45864
   H       16.68099         2.33214       -10.69931
   H       14.22558         2.12704       -10.99867
   H       13.97602         2.09852        -5.46467
   H       11.96138         1.96053       -10.02721
   H        7.82547         2.34263        -6.69191
   H        9.64860         6.77014         0.52417
   H        7.13484         5.86912         0.92704
   H        5.03137         2.08479        -3.69240
   H        6.94782         0.59376        -5.57048
   H        2.24793         1.99567        -2.91574
   H        1.84299         0.26778        -2.80471
   H        1.29662         1.22117        -4.20932
   H        0.25959        -2.20761        -3.68566
   H        1.21999        -3.15381        -4.85021
   H       -0.15638        -2.15417        -5.40775
   H       -0.07956        -8.74696        -9.33107
   H       -1.94395        -6.94893       -10.09388
   H        1.04131        -0.33247        -7.33168
   H       -1.35425        -1.49435        -8.84862
   H       -0.58728         1.42701        -8.25863
   H       -4.79024         4.08250       -10.26105
   H       -8.37118        -0.09066       -11.04798
   H       -9.08272         3.90663       -12.36171
   H       -6.89588         4.62443       -11.43218
   H       -6.29759        -0.65776        -9.87553
*
