# ORCA input file
# SCF done       -220.955050888170          0.000713322058
! CAM-B3LYP def2-SVP def2/J RIJCOSX Grid4 TightSCF
%maxcore 5000
%tddft
    Mode sTDDFT
    Ethresh 5.0
    maxcore 5000
end

%pal
  nprocs 6
  end
* xyz 0 1
   C       10.17919         4.38538       -11.10402
   C       10.92773         3.93027       -12.15396
   F       11.67660         4.79571       -12.85669
   C       10.94718         2.58047       -12.53430
   C       10.19198         1.68370       -11.83190
   C        9.40070         2.09811       -10.74000
   C        9.39245         3.47626       -10.37043
   C        8.59731         3.91860        -9.28847
   C        7.83426         3.01259        -8.60168
   C        7.86120         1.63211        -8.96297
   C        8.61959         1.17941       -10.00604
   C        6.98520         0.86907        -8.05944
   O        6.68215        -0.29710        -8.10272
   C        6.56370         1.85932        -7.01426
   C        6.89895         3.18949        -7.49759
   C        6.27786         4.35462        -7.15094
   C        5.19155         4.42584        -6.25230
   N        4.26190         4.52231        -5.58634
   C        6.58110         5.60453        -7.73317
   N        6.79046         6.63698        -8.18641
   C        6.09357         1.44144        -5.81999
   C        5.96318         2.25224        -4.64759
   N        6.80831         3.22953        -4.38533
   C        6.39546         3.77216        -3.21642
   C        5.19995         3.09423        -2.70865
   C        4.76007         3.70713        -1.44692
   O        3.82785         3.39176        -0.73808
   C        5.75049         4.78224        -1.24507
   C        6.73750         4.77892        -2.34887
   N        7.65934         5.75625        -2.16876
   C        7.31283         6.35421        -1.05674
   C        6.12779         5.79527        -0.42671
   C        4.91429         2.09667        -3.61357
   C        3.88160         1.12958        -3.64896
   C        2.88434         1.08673        -2.72334
   C        1.85309         0.12452        -2.65515
   S        0.42947         0.49154        -1.75127
   C       -0.30081        -1.05117        -2.06942
   C        0.52658        -1.81956        -2.92271
   C        1.76690        -1.17277        -3.20885
   C        2.75582        -1.89763        -3.88148
   C        2.50770        -3.16065        -4.36894
   C        3.67464        -3.87936        -4.94930
   O        4.80823        -3.50544        -4.75703
   O        3.37165        -4.94382        -5.67191
   C        1.20957        -3.73216        -4.24026
   O        0.96958        -4.92466        -4.79388
   C        0.24657        -3.06025        -3.50882
   C       -1.46184        -1.40280        -1.35685
   C       -1.82836        -2.68090        -1.04743
   C       -2.88844        -2.98856        -0.16321
   N       -3.95708        -2.22255         0.01257
   C       -4.76622        -2.89912         0.84281
   C       -4.17224        -4.19050         1.23631
   C       -5.06655        -4.92075         2.15874
   O       -4.88409        -5.99542         2.68337
   C       -6.21766        -4.00920         2.26506
   C       -5.99486        -2.79186         1.45455
   N       -7.04550        -1.94752         1.56226
   C       -7.88718        -2.54768         2.37251
   C       -7.43209        -3.83435         2.85069
   C       -2.95041        -4.24722         0.62967
   C       -1.91954        -5.23342         0.75768
   C       -0.59437        -4.96312         0.72657
   C       -0.05576        -3.64073         0.76032
   C        1.11733        -3.15496         0.26909
   C        1.53657        -1.78453         0.67051
   O        0.88156        -1.00276         1.32315
   C        2.87256        -1.58827         0.08667
   C        3.68581        -0.49388         0.15833
   C        4.88218        -0.47775        -0.59157
   C        5.19723        -1.59083        -1.42384
   C        6.32530        -1.52111        -2.26476
   C        7.11077        -0.40196        -2.23317
   C        6.85845         0.67253        -1.36788
   C        5.75416         0.62910        -0.56263
   F        8.16989        -0.31022        -3.05775
   C        4.36839        -2.73675        -1.42780
   C        3.22027        -2.73871        -0.68035
   C        2.12388        -3.70097        -0.61198
   C        2.01928        -4.82837        -1.38914
   C        0.81005        -5.48922        -1.67051
   N       -0.15381        -5.98024        -2.06045
   C        3.07788        -5.38601        -2.13629
   N        3.89699        -5.92649        -2.73170
   H       10.18574         5.43166       -10.84161
   H       11.55722         2.28053       -13.37148
   H       10.19101         0.63962       -12.10620
   H        8.61660         4.96334        -9.02139
   H        8.62180         0.13195       -10.26801
   H        5.85066         0.38780        -5.73274
   H        7.89000         7.18133        -0.68148
   H        5.68574         6.14338         0.48576
   H        3.89097         0.43982        -4.47856
   H        2.84003         1.87672        -1.98317
   H        3.75385        -1.51030        -3.99801
   H        4.17895        -5.39992        -5.95914
   H        0.09616        -5.26153        -4.54615
   H       -0.73261        -3.50150        -3.40416
   H       -2.01516        -0.59974        -0.88850
   H       -1.25069        -3.52103        -1.39992
   H       -8.82190        -2.07873         2.62665
   H       -7.96834        -4.47775         3.51975
   H       -2.25463        -6.25421         0.88075
   H        0.10717        -5.78700         0.73301
   H       -0.62587        -2.90797         1.32613
   H        3.40493         0.36393         0.75072
   H        6.54509        -2.33416        -2.93960
   H        7.53695         1.51181        -1.36468
   H        5.52547         1.44814         0.10146
   H        4.65873        -3.57208        -2.04413
*
