# ORCA input file
# SCF done       -204.078882487631          0.000973127336
! CAM-B3LYP def2-SVP def2/J RIJCOSX Grid4 TightSCF
%maxcore 5000
%tddft
    Mode sTDDFT
    Ethresh 5.0
    maxcore 5000
end

%pal
  nprocs 6
  end
* xyz 0 1
   C       -5.12276       -10.92051         7.09210
   C       -6.31816       -11.62153         7.05912
   C       -7.51182       -10.98790         6.73788
   C       -7.54551        -9.63537         6.43234
   C       -6.35794        -8.92288         6.45822
   C       -5.14195        -9.56571         6.79552
   C       -4.06844        -8.58847         6.75452
   C       -2.72401        -8.82954         6.80449
   C       -2.15833       -10.11338         6.97138
   N       -1.64134       -11.12806         7.10675
   C       -1.72997        -7.84425         6.62135
   N       -0.87732        -7.09498         6.44671
   C       -4.70666        -7.27961         6.59488
   C       -6.07923        -7.52859         6.14901
   C       -6.84826        -6.69634         5.39319
   C       -6.39269        -5.46488         4.86918
   N       -6.02780        -4.51760         4.33502
   C       -8.14189        -7.02982         4.93403
   N       -9.19200        -7.26258         4.53712
   C       -4.13177        -6.11513         6.98404
   C       -4.75389        -4.84118         7.12983
   N       -6.05261        -4.68293         7.31337
   C       -6.24366        -3.35109         7.44949
   C       -4.98043        -2.61659         7.33941
   C       -5.21390        -1.16952         7.46461
   O       -4.40531        -0.26873         7.42917
   C       -6.67896        -1.09352         7.64517
   C       -7.26478        -2.45366         7.63712
   N       -8.60940        -2.39787         7.80227
   C       -8.88859        -1.12308         7.90134
   C       -7.72705        -0.25098         7.80946
   C       -4.00437        -3.56406         7.14262
   C       -2.60163        -3.45533         6.95249
   C       -1.94615        -2.26886         6.88671
   C       -0.54584        -2.12101         6.68242
   S       -0.01039        -0.65114         5.94383
   C        1.63419        -1.22226         5.85766
   C        1.74108        -2.50922         6.40550
   C        0.52620        -2.98777         6.92058
   C        0.42156        -4.22241         7.80037
   N       -0.30842        -4.01057         9.03760
   C        1.82047        -4.72177         8.16248
   C        2.68097        -4.76357         6.91472
   C        2.99964        -3.33616         6.44867
   N        3.68548        -3.32741         5.15710
   C        2.55243        -0.28959         5.33048
   C        3.89743        -0.42200         5.14735
   C        4.66721         0.64261         4.63496
   N        4.14814         1.83044         4.32184
   C        5.16996         2.58774         3.90786
   C        6.44725         1.85410         3.96767
   C        7.55867         2.70229         3.49661
   O        8.73293         2.41424         3.40780
   C        6.87905         3.96041         3.16006
   C        5.42866         3.85328         3.42529
   N        4.80100         5.00749         3.11381
   C        5.74834         5.80989         2.67962
   C        7.06611         5.21995         2.68034
   C        6.13677         0.59817         4.41707
   C        6.96469        -0.52318         4.69263
   C        8.31849        -0.47375         4.72352
   C        9.15290        -1.58672         5.02440
   C        8.87125        -2.65017         5.83214
   C        9.57596        -3.93028         5.78217
   C       10.82288        -4.17214         5.27729
   C       11.70367        -3.19337         4.76564
   N       12.48259        -2.46120         4.34844
   C       11.42895        -5.44705         5.24673
   N       11.97482        -6.45470         5.18923
   C        8.69143        -4.91744         6.38736
   C        7.58320        -4.25027         6.95703
   C        6.58795        -4.96521         7.60490
   C        6.69694        -6.34543         7.67104
   C        7.78400        -7.00184         7.11047
   C        8.79116        -6.29806         6.46807
   C        7.75187        -2.81948         6.75736
   C        7.12981        -1.83861         7.48180
   C        6.03962        -2.07265         8.34042
   N        5.10131        -2.21230         8.98894
   C        7.50526        -0.47728         7.47670
   N        7.79071         0.62917         7.57366
   H       -4.20477       -11.42281         7.35125
   H       -6.31915       -12.67537         7.29120
   H       -8.42962       -11.55529         6.72597
   H       -8.47899        -9.15300         6.19223
   H       -3.09480        -6.14869         7.28929
   H       -9.90500        -0.79819         8.04067
   H       -7.74702         0.81925         7.86607
   H       -2.05487        -4.37625         6.81197
   H       -2.51974        -1.35053         6.92360
   H       -0.08589        -5.02313         7.24734
   H        0.13492        -3.28204         9.58672
   H       -1.27056        -3.73885         8.87575
   H        2.27052        -4.05063         8.89728
   H        1.72973        -5.70864         8.61427
   H        2.14828        -5.29590         6.12141
   H        3.61626        -5.29349         7.10714
   H        3.68016        -2.87134         7.17791
   H        3.04518        -3.60671         4.42083
   H        4.44037        -4.00642         5.17705
   H        2.12965         0.67048         5.05757
   H        4.38069        -1.35995         5.36226
   H        5.50736         6.81014         2.36405
   H        7.96867         5.70431         2.36439
   H        6.45596        -1.46085         4.88100
   H        8.81789         0.43863         4.42032
   H       10.09973        -1.59813         4.49942
   H        5.74251        -4.46594         8.04926
   H        5.92649        -6.91538         8.16804
   H        7.84981        -8.07693         7.17595
   H        9.62806        -6.82463         6.04031
*
