# ORCA input file
# SCF done       -191.910105273732          0.000518694724
! CAM-B3LYP def2-SVP def2/J RIJCOSX Grid4 TightSCF
%maxcore 5000
%tddft
    Mode sTDDFT
    Ethresh 5.0
    maxcore 5000
end

%pal
  nprocs 6
  end
* xyz 0 1
   C        1.68732         0.85125        -6.98811
   C        1.40738         0.61503        -8.32522
   C        0.48307        -0.34964        -8.70504
   C       -0.19469        -1.10287        -7.75822
   C        0.07378        -0.87550        -6.41838
   C        1.02207         0.10114        -6.02972
   C        1.11905         0.11207        -4.57916
   C        1.77412         1.02570        -3.80295
   C        2.50529         2.11791        -4.32150
   N        3.11368         3.01834        -4.68753
   C        1.76319         1.02858        -2.38980
   N        1.77751         1.07793        -1.24330
   C        0.35206        -1.04385        -4.10582
   C       -0.49129        -1.47852        -5.22187
   C       -1.69009        -2.11867        -5.12736
   C       -2.32160        -2.43296        -3.90242
   N       -2.91654        -2.62249        -2.94019
   C       -2.49820        -2.43347        -6.24232
   N       -3.18946        -2.70157        -7.11694
   C        0.56163        -1.65621        -2.91324
   C        0.11998        -2.95340        -2.52399
   N       -0.22952        -3.88460        -3.39476
   C       -0.51252        -4.98488        -2.66361
   C       -0.32721        -4.73719        -1.23214
   C       -0.66033        -5.94046        -0.45784
   O       -0.60931        -6.10735         0.74306
   C       -1.06623        -6.90013        -1.50497
   C       -0.95010        -6.27422        -2.84073
   N       -1.31782        -7.14489        -3.81248
   C       -1.65417        -8.24053        -3.18002
   C       -1.52313        -8.15543        -1.73372
   C        0.08599        -3.42740        -1.12113
   C        0.38532        -2.64163         0.01877
   C        0.34586        -3.15121         1.27913
   C        0.62996        -2.42378         2.45331
   C        0.63697        -2.94208         3.75958
   C        0.33069        -4.37752         4.05177
   C        0.36851        -4.73211         5.53275
   C        0.96066        -1.97611         4.69951
   C        1.20202        -0.71186         4.16432
   S        1.02478        -0.73214         2.43573
   C        1.54742         0.48045         4.82996
   C        1.74974         0.58105         6.17642
   C        2.08743         1.79659         6.80487
   N        2.06968         2.97181         6.17254
   C        2.36066         3.89923         7.09329
   C        2.55680         3.28602         8.41714
   C        2.92376         4.28914         9.42863
   O        3.17766         4.10063        10.60041
   C        2.91203         5.53336         8.64742
   C        2.56180         5.25630         7.23411
   N        2.57404         6.39611         6.50967
   C        2.91163         7.34165         7.35814
   C        3.14505         6.87209         8.70428
   C        2.41727         1.93989         8.24238
   C        2.66337         0.96869         9.25966
   C        3.20700        -0.25241         9.08949
   C        3.54070        -1.11476        10.18209
   C        3.98221        -0.73626        11.40885
   C        3.96270        -1.59424        12.59622
   C        3.87040        -2.95834        12.62733
   C        3.81695        -3.80126        11.49663
   N        3.76778        -4.54581        10.62379
   C        3.85399        -3.72199        13.81506
   N        3.83749        -4.40310        14.73831
   C        4.05129        -0.71224        13.74942
   C        4.30313         0.60481        13.30129
   C        4.38945         1.65570        14.19954
   C        4.23990         1.38126        15.55019
   C        4.01295         0.08554        15.99574
   C        3.91284        -0.97180        15.10502
   C        4.44239         0.58569        11.85456
   C        5.12426         1.51393        11.12252
   C        5.69644         2.68301        11.67448
   N        6.21792         3.62351        12.07193
   C        5.44454         1.38527         9.75441
   N        5.78064         1.32164         8.65892
   H        2.41409         1.59693        -6.70981
   H        1.92165         1.18802        -9.08129
   H        0.28930        -0.51889        -9.75303
   H       -0.90276        -1.85578        -8.06396
   H        1.20246        -1.16271        -2.19610
   H       -1.98945        -9.10379        -3.72806
   H       -1.74954        -8.94216        -1.04168
   H        0.64960        -1.60222        -0.12786
   H        0.08144        -4.19221         1.41171
   H        1.04647        -5.00488         3.51323
   H       -0.65763        -4.61484         3.64874
   H        1.35839        -4.56224         5.94982
   H        0.12441        -5.78344         5.66045
   H       -0.35727        -4.14562         6.09152
   H        1.01996        -2.16948         5.75389
   H        1.67346         1.37561         4.23659
   H        1.64596        -0.28657         6.81041
   H        2.99350         8.36216         7.02642
   H        3.43585         7.48001         9.53791
   H        2.47445         1.32490        10.26620
   H        3.38266        -0.64428         8.09728
   H        3.37550        -2.16942        10.00478
   H        4.54893         2.66571        13.85851
   H        4.29854         2.18826        16.26427
   H        3.90335        -0.10368        17.05264
   H        3.72226        -1.96846        15.46791
*
