# ORCA input file
# SCF done       -203.758151938261          0.000991164453
! CAM-B3LYP def2-SVP def2/J RIJCOSX Grid4 TightSCF
%maxcore 5000
%tddft
    Mode sTDDFT
    Ethresh 5.0
    maxcore 5000
end

%pal
  nprocs 6
  end
* xyz 0 1
   C       -5.76831         7.16271        -6.12546
   C       -4.63902         7.85437        -5.76672
   C       -4.30405         9.13100        -6.26374
   N       -3.98038        10.16953        -6.62898
   C       -3.63287         7.32959        -4.93650
   N       -2.79346         6.92390        -4.26521
   C       -6.67965         7.55368        -7.19728
   C       -7.41797         6.40476        -7.60664
   C       -8.31679         6.45765        -8.63267
   C       -8.52755         7.68473        -9.30147
   C       -7.80749         8.84097        -8.88339
   C       -6.87959         8.75582        -7.81927
   C       -8.03100        10.05968        -9.55509
   C       -8.91888        10.13403       -10.59380
   C       -9.62636         8.99502       -11.00571
   C       -9.43523         7.79659       -10.37297
   C       -7.04604         5.26055        -6.75787
   O       -7.42708         4.11476        -6.83269
   C       -6.12706         5.82232        -5.72363
   C       -5.87043         5.08000        -4.60980
   C       -5.36657         5.50103        -3.36445
   S       -4.77180         4.34033        -2.18398
   C       -4.36431         5.54329        -0.98164
   C       -4.72272         6.77023        -1.49422
   C       -5.26398         6.74968        -2.78691
   O       -5.58718         8.02470        -3.12981
   C       -5.22936         8.80355        -2.07820
   S       -5.42478        10.40251        -2.03674
   O       -4.70477         8.07059        -1.07501
   C       -3.72448         5.23013         0.25927
   C       -3.36469         6.24847         1.11637
   C       -2.67170         5.95005         2.30342
   C       -2.15515         6.77202         3.29662
   C       -2.23904         8.25481         3.41763
   C       -1.48293         8.95473         2.26879
   N       -1.06833        10.27157         2.70916
   C       -3.70228         8.72867         3.50275
   N       -3.75977        10.13381         3.87295
   C       -1.45764         5.90931         4.22244
   C       -0.71434         6.19282         5.30822
   C        0.01307         5.12930         6.05026
   C       -0.27999         3.72902         5.59056
   C       -1.03818         3.46510         4.51250
   C       -1.61870         4.52055         3.76770
   C       -2.35189         4.55636         2.60181
   C       -2.77204         3.53392         1.71632
   C       -3.43455         3.86331         0.58195
   C       -0.13941         5.19238         7.54160
   C       -1.06761         5.89573         8.19843
   C       -1.15993         5.88344         9.62706
   S       -2.29414         6.88139        10.50414
   C       -1.75388         6.35124        12.09191
   C       -0.76153         5.41568        11.89619
   C       -0.43585         5.16836        10.54994
   O        0.52868         4.20591        10.52767
   C        0.75273         3.86548        11.82023
   S        1.80696         2.73993        12.28471
   O       -0.03018         4.57386        12.66207
   C       -2.35109         6.83939        13.27924
   C       -1.72357         6.89652        14.48693
   C       -2.32786         7.19428        15.77384
   C       -3.66932         7.27482        16.04130
   C       -4.20620         7.54081        17.31891
   N       -4.70368         7.75921        18.32986
   C       -4.69544         7.08734        15.09185
   N       -5.57830         6.93325        14.37393
   C       -1.25404         7.30835        16.75234
   C       -0.01012         7.08077        16.09592
   C       -0.24444         6.84233        14.66492
   O        0.59331         6.74882        13.79389
   C        1.17818         7.11081        16.76735
   C        1.17762         7.36968        18.15602
   C       -0.06093         7.60930        18.81934
   C       -1.27526         7.57561        18.09637
   C       -0.04860         7.87707        20.20349
   C        1.12863         7.90319        20.90077
   C        2.34668         7.66288        20.24736
   C        2.37076         7.40135        18.90411
   H       -8.85831         5.57323        -8.93395
   H       -6.35607         9.64879        -7.51552
   H       -7.48175        10.93323        -9.23606
   H       -9.08011        11.07153       -11.10459
   H      -10.32346         9.07157       -11.82675
   H       -9.97737         6.91604       -10.68551
   H       -6.15508         4.03468        -4.67378
   H       -3.58719         7.27086         0.85935
   H       -1.73896         8.56261         4.34139
   H       -2.12132         8.96928         1.37199
   H       -0.58270         8.37784         2.02865
   H       -1.89734        10.80130         2.96738
   H       -0.59317        10.76255         1.95986
   H       -4.24020         8.07176         4.20925
   H       -4.18211         8.62731         2.52727
   H       -3.42923        10.26271         4.82397
   H       -4.71336        10.47489         3.82447
   H       -0.56058         7.20814         5.64767
   H        1.08554         5.30853         5.84788
   H        0.17122         2.93761         6.16824
   H       -1.20908         2.44589         4.19854
   H       -2.54773         2.50389         1.94881
   H       -3.75434         3.10491        -0.11740
   H        0.55363         4.57688         8.09834
   H       -1.78638         6.51301         7.68026
   H       -3.36788         7.19523        13.17772
   H        2.10646         6.93106        16.24572
   H       -2.19466         7.76678        18.62674
   H       -0.98886         8.05923        20.70280
   H        1.12760         8.10796        21.96074
   H        3.26577         7.68601        20.81347
   H        3.30533         7.21537        18.39553
*
