# ORCA input file
# SCF done       -190.936696459340          0.000616364981
! CAM-B3LYP def2-SVP def2/J RIJCOSX Grid4 TightSCF
%maxcore 5000
%tddft
    Mode sTDDFT
    Ethresh 5.0
    maxcore 5000
end

%pal
  nprocs 6
  end
* xyz 0 1
   C       -0.42357        -0.39274        -2.69660
   C       -0.06710         0.89906        -2.92907
   C        1.09035         1.62614        -2.33204
   F        1.69576         0.90133        -1.38610
   F        2.02742         1.93232        -3.24587
   F        0.72730         2.78700        -1.76362
   S       -1.10830         1.70160        -4.04814
   C       -2.05883         0.26223        -4.20132
   C       -3.14727         0.27730        -5.07752
   N       -4.03174         0.32146        -5.80798
   C       -1.58078        -0.78653        -3.42057
   C       -2.15259        -2.09922        -3.33116
   C       -1.57271        -3.19161        -2.73477
   C       -2.44240        -4.31580        -2.87320
   C       -3.64237        -3.82085        -3.57224
   C       -3.45850        -2.50265        -3.84104
   C       -4.82296        -4.53535        -3.81896
   N       -5.82146        -5.07489        -3.98934
   C       -2.20960        -5.60760        -2.46084
   C       -2.99846        -6.75688        -2.73612
   C       -2.43648        -7.85752        -2.10841
   C       -1.24329        -7.40466        -1.40658
   C       -1.08430        -6.07444        -1.63208
   C       -0.03874        -5.29447        -1.12362
   N        0.83016        -4.67713        -0.69619
   C       -2.96885        -9.16523        -2.19994
   N       -2.65863       -10.24662        -1.41672
   C       -1.76639       -10.29891        -0.28933
   C       -3.39753       -11.38855        -1.78107
   O       -3.29607       -12.45801        -1.21431
   C       -4.21239       -10.95219        -2.89499
   C       -3.93652        -9.59549        -3.12531
   C       -4.71043        -9.16693        -4.28248
   O       -4.76986        -8.11676        -4.87662
   N       -5.43889       -10.31469        -4.64742
   C       -6.36105       -10.30241        -5.75223
   C       -5.16170       -11.38624        -3.84419
   C       -5.76216       -12.64698        -4.00503
   C       -5.46695       -13.69022        -3.16598
   C       -5.93877       -15.01553        -3.21064
   C       -6.48234       -15.80815        -4.22890
   N       -6.94879       -15.47436        -5.51480
   O       -7.05696       -16.38602        -6.31448
   O       -7.23834       -14.31488        -5.76815
   C       -6.45405       -17.18185        -3.81931
   C       -5.90729       -17.27325        -2.57679
   C       -5.61565       -15.95289        -2.11011
   C       -5.25598       -15.59798        -0.82892
   C       -5.53931       -14.35475        -0.16451
   C       -5.17578       -14.46623         1.13348
   C       -4.59751       -15.77642         1.34984
   N       -3.96333       -16.08741         2.57206
   O       -3.51919       -17.20820         2.74389
   O       -3.87921       -15.18724         3.38816
   C       -4.64368       -16.49655         0.17257
   C       -4.08462       -17.76568        -0.17966
   C       -4.06568       -18.86792         0.59603
   C       -3.47638       -20.11591         0.18453
   C       -3.75469       -21.33328         0.78540
   C       -4.73197       -21.57405         1.88372
   F       -5.94246       -21.05247         1.60293
   F       -4.92345       -22.88077         2.10767
   F       -4.35538       -21.03473         3.05179
   S       -2.88873       -22.65297         0.11282
   C       -2.11537       -21.57512        -1.00769
   C       -1.18244       -22.05261        -1.93749
   N       -0.41894       -22.43183        -2.70387
   C       -2.52701       -20.27931        -0.85512
   H        0.10854        -1.03738        -2.02102
   H       -0.60376        -3.23426        -2.27932
   H       -4.16053        -1.85232        -4.32612
   H       -3.87692        -6.76351        -3.35094
   H       -0.57182        -8.01595        -0.83654
   H       -1.97002        -9.48392         0.40542
   H       -0.72301       -10.26755        -0.60918
   H       -1.94519       -11.25251         0.20964
   H       -6.32753        -9.30248        -6.18421
   H       -7.37587       -10.51470        -5.41324
   H       -6.07500       -11.03543        -6.50738
   H       -6.47865       -12.76883        -4.80255
   H       -4.76713       -13.49431        -2.36395
   H       -6.82735       -17.98312        -4.42925
   H       -5.83106       -18.16476        -1.98554
   H       -6.05887       -13.52840        -0.60677
   H       -5.27681       -13.73576         1.91318
   H       -3.69217       -17.81873        -1.18732
   H       -4.53152       -18.85414         1.56852
   H       -2.13962       -19.47331        -1.45097
*
