# ORCA input file
# SCF done       -150.067542768508          0.000489585198
! CAM-B3LYP def2-SVP def2/J RIJCOSX Grid4 TightSCF
%maxcore 5000
%tddft
    Mode sTDDFT
    Ethresh 5.0
    maxcore 5000
end

%pal
  nprocs 6
  end
* xyz 0 1
   C       -2.53120         3.92802         4.48335
   S       -2.07948         3.57888         2.84351
   C       -0.93532         4.84095         2.95020
   C       -0.96141         5.42748         4.19089
   N       -1.87511         4.87596         5.03726
   C       -0.12428         6.54961         4.57656
   C        0.06239         7.70522         3.83982
   N       -0.63041         8.14104         2.69421
   O       -0.29113         9.21171         2.21740
   O       -1.52854         7.45185         2.24037
   C        1.05451         8.53562         4.48222
   C        1.52847         7.86908         5.55569
   C        0.82963         6.60718         5.67761
   C        1.04783         5.67547         6.67551
   C        0.08676         4.78844         7.23796
   C        0.56310         4.31731         8.42704
   C        1.88936         4.80858         8.63472
   N        2.67146         4.42676         9.72535
   O        2.15931         3.69914        10.56246
   O        3.82859         4.83363         9.80714
   C        2.25451         5.60221         7.53578
   C        3.54993         6.05327         7.27277
   C        4.05849         6.41429         6.04544
   C        5.36079         6.84846         5.78753
   S        5.64662         7.56003         4.22177
   C        7.26326         8.02297         4.61057
   C        7.62812         7.53029         5.88176
   C        6.55512         6.87193         6.55767
   C        6.79402         6.28031         7.80624
   C        8.03950         6.35030         8.38959
   C        8.29695         5.71535         9.71653
   C        9.09027         6.99346         7.70836
   C        8.90292         7.55751         6.47639
   C        7.95811         8.84364         3.68571
   C        8.99455         9.66375         3.97894
   C        9.67897        10.50223         3.02628
   C        9.79042        10.08980         1.68658
   C       10.54519        10.83782         0.81873
   C       11.22317        11.98573         1.25204
   C       11.96761        12.54192         0.09634
   O       12.67932        13.51141         0.03720
   N       11.69004        11.68893        -0.96284
   C       10.84639        10.64289        -0.62065
   O       10.47414         9.77641        -1.36989
   C       12.19836        11.89717        -2.30237
   C       11.30957        12.85600        -3.08635
   C       11.12986        12.41125         2.55416
   C       10.32303        11.69255         3.45109
   C       10.16452        12.23750         4.78106
   C        9.05967        12.14706         5.54556
   C        8.98165        12.71544         6.85321
   S        7.50458        12.54914         7.80805
   C        8.28120        13.41802         9.06345
   C        9.54851        13.76157         8.69287
   N        9.92040        13.36147         7.46682
   H       -3.30609         3.37478         4.97488
   H       -0.31045         5.08370         2.11551
   H        1.31851         9.51580         4.13573
   H        2.22870         8.23622         6.28039
   H       -0.89608         4.63728         6.83620
   H        0.05268         3.67936         9.12420
   H        4.20749         6.03869         8.12652
   H        3.40402         6.38064         5.18375
   H        6.02246         5.73111         8.31774
   H        7.37944         5.32188        10.14503
   H        8.72767         6.44006        10.40588
   H        9.01072         4.89885         9.60926
   H       10.07021         7.01117         8.16196
   H        9.73943         7.97864         5.94348
   H        7.53016         8.87298         2.69160
   H        9.33592         9.74282         5.00034
   H        9.31970         9.17873         1.35209
   H       12.23261        10.92039        -2.79044
   H       13.20825        12.30480        -2.21226
   H       10.30132        12.45593        -3.16586
   H       11.71084        12.99440        -4.08611
   H       11.26984        13.82200        -2.58836
   H       11.64530        13.30142         2.88075
   H       10.98998        12.82285         5.16367
   H        8.16131        11.66400         5.18798
   H        7.77294        13.62460         9.98305
   H       10.24550        14.31307         9.29740
*
