# ORCA input file
# SCF done       -194.103373781310          0.002876299045
! CAM-B3LYP def2-SVP def2/J RIJCOSX Grid4 TightSCF
%maxcore 5000
%tddft
    Mode sTDDFT
    Ethresh 5.0
    maxcore 5000
end

%pal
  nprocs 6
  end
* xyz 0 1
   C       -1.76310         7.67451        -0.17665
   C       -2.61001         6.76202        -0.73397
   C       -2.40381         6.18084        -2.00137
   N       -2.24114         5.67285        -3.01739
   C       -3.81078         6.38608        -0.09113
   N       -4.81499         6.14557         0.40666
   C       -0.67808         8.38191        -0.83964
   C       -0.47577         9.62261        -0.16335
   C        0.44219        10.53350        -0.60336
   C        1.23297        10.22383        -1.73149
   C        1.05823         8.97098        -2.39055
   C        0.08066         8.05875        -1.93195
   C        1.87713         8.66410        -3.49560
   C        2.82635         9.54895        -3.92927
   C        2.99710        10.78188        -3.28212
   C        2.21512        11.11423        -2.20931
   C       -1.34957         9.69393         1.01685
   O       -1.48693        10.59910         1.80202
   C       -1.97100         8.32675         1.10922
   C       -2.37849         7.87056         2.30004
   C       -2.59539         6.45302         2.76150
   C       -2.17960         6.41009         4.20267
   N       -2.97703         6.57104         5.23134
   S       -2.10288         6.51658         6.59853
   N       -0.65922         6.27542         5.88871
   C       -0.82210         6.24152         4.58671
   C        0.27428         6.03003         3.59556
   C       -0.33277         5.32175         2.42483
   C       -1.68762         5.50023         2.04338
   N       -2.01001         4.76209         1.00539
   S       -0.71758         3.91939         0.50870
   N        0.30922         4.48580         1.63888
   C        0.83258         7.33442         3.10025
   S        0.54038         8.86385         3.86844
   C        1.52423         9.75291         2.73122
   C        2.04354         8.88265         1.78526
   C        1.63393         7.52391         2.00730
   N        2.16793         6.74193         1.02769
   C        2.91712         7.55746         0.20159
   C        3.56229         7.07010        -0.94211
   N        4.06714         6.69453        -1.90224
   C        2.86748         8.86443         0.63137
   C        1.69519        11.15483         2.93016
   C        2.46779        11.95450         2.18670
   C        2.71356        13.41234         2.48662
   C        4.19354        13.61859         2.63621
   N        5.00656        13.97412         1.66979
   S        6.51565        14.09273         2.26421
   N        6.14975        13.68729         3.79424
   C        4.86356        13.44849         3.87849
   C        4.14285        12.99810         5.10932
   C        2.76982        13.60894         5.03009
   C        2.10746        13.81859         3.78942
   N        0.93788        14.39392         3.93484
   S        0.66664        14.65110         5.51823
   N        2.06579        14.02770         6.05358
   C        4.00185        11.50371         5.05921
   C        3.54077        10.73270         6.05370
   C        3.23229         9.30533         5.97275
   C        3.66610         8.43383         5.01383
   C        3.36325         7.05628         4.99920
   N        3.16460         5.92779         4.91782
   C        4.47548         8.77366         3.90828
   N        5.12026         8.96635         2.97765
   C        2.40076         8.97993         7.11882
   C        2.34101        10.11194         7.98413
   C        3.13058        11.21601         7.41036
   O        3.41794        12.26799         7.92578
   C        1.61562        10.09469         9.14051
   C        0.89266         8.92985         9.48284
   C        0.94079         7.79825         8.61749
   C        1.70646         7.83926         7.43199
   C        0.21012         6.64343         8.96602
   C       -0.54005         6.61042        10.11017
   C       -0.58754         7.72499        10.96152
   C        0.11509         8.85890        10.65589
   H        0.57088        11.47213        -0.08503
   H       -0.03721         7.11680        -2.44600
   H        1.74478         7.71399        -3.99005
   H        3.45212         9.30144        -4.77283
   H        3.75097        11.46797        -3.63781
   H        2.34117        12.06273        -1.70760
   H       -2.44946         8.61455         3.08695
   H       -3.64642         6.16921         2.63801
   H        1.08611         5.43512         4.03550
   H        2.08831         5.73898         0.96937
   H        3.37430         9.68326         0.16464
   H        1.14319        11.56078         3.76772
   H        3.01562        11.56905         1.34095
   H        2.32846        14.02729         1.66652
   H        4.63778        13.30954         6.03194
   H        4.22928        11.05404         4.10175
   H        1.58592        10.96393         9.78054
   H        1.70306         6.97381         6.78971
   H        0.25860         5.78974         8.30733
   H       -1.09759         5.72337        10.36951
   H       -1.18296         7.68048        11.86141
   H        0.08298         9.71920        11.30888
*
