# ORCA input file
# SCF done       -225.927815303511          0.000718327745
! CAM-B3LYP def2-SVP def2/J RIJCOSX Grid4 TightSCF
%maxcore 5000
%tddft
    Mode sTDDFT
    Ethresh 5.0
    maxcore 5000
end

%pal
  nprocs 6
  end
* xyz 0 1
   C      -11.38594        -1.47583        -0.32663
   C      -10.78770        -1.00786        -1.46301
   F      -10.85112         0.29269        -1.77087
   C      -10.09793        -1.88552        -2.32421
   F       -9.52196        -1.40031        -3.43129
   C      -10.01658        -3.21910        -2.03680
   C      -10.62364        -3.73207        -0.87387
   C      -11.31966        -2.84553        -0.00120
   C      -11.93097        -3.33716         1.17469
   C      -11.84735        -4.67275         1.46811
   C      -11.16022        -5.55382         0.58563
   C      -10.56029        -5.10681        -0.55703
   C      -11.23532        -6.93141         1.10359
   O      -10.81776        -7.93395         0.56083
   C      -12.02023        -6.83873         2.36053
   C      -12.34320        -5.44581         2.60052
   C      -12.90155        -4.94199         3.74375
   C      -13.19477        -5.72445         4.88179
   N      -13.40089        -6.30225         5.85157
   C      -13.18586        -3.57530         3.94706
   N      -13.44067        -2.47597         4.15444
   C      -12.50652        -7.92361         3.02466
   C      -12.02595        -9.24839         2.83819
   C      -12.77827       -10.40001         2.63972
   N      -14.18063       -10.45687         2.57277
   O      -14.69769       -11.55266         2.45412
   O      -14.79689        -9.40410         2.63740
   C      -11.90385       -11.51019         2.40987
   C      -10.62152       -11.05249         2.43015
   C      -10.63148        -9.64512         2.71427
   C       -9.54065        -8.84220         3.02056
   C       -9.51099        -7.80378         3.98054
   C       -8.20997        -7.40203         4.16784
   C       -7.36931        -8.11574         3.27652
   N       -5.98858        -7.91434         3.19579
   O       -5.32873        -8.63220         2.45035
   O       -5.50309        -7.03448         3.88714
   C       -8.16435        -8.98895         2.50263
   C       -7.75363        -9.65137         1.35367
   C       -8.58564       -10.21704         0.40217
   C       -8.18597       -10.93941        -0.71403
   S       -9.41438       -11.31236        -1.89670
   C       -8.27669       -11.97284        -3.01436
   C       -6.97748       -11.99933        -2.45596
   C       -6.92219       -11.44063        -1.14494
   C       -5.71508       -11.46728        -0.43962
   C       -4.57692       -11.99425        -1.01784
   C       -3.28654       -12.01799        -0.26910
   C       -4.65021       -12.55614        -2.30465
   C       -5.82436       -12.57979        -3.00987
   C       -8.72887       -12.38545        -4.28679
   C       -7.98512       -12.39512        -5.42683
   C       -8.47494       -12.85386        -6.67138
   O       -9.64595       -13.51287        -6.78302
   C       -9.82496       -13.85288        -8.07730
   C       -8.75628       -13.37585        -8.84160
   C       -7.87613       -12.73996        -7.93141
   C       -6.65056       -12.11956        -8.20728
   N       -5.64468       -11.60923        -8.41116
   C       -8.59402       -13.51963       -10.22690
   N       -8.46998       -13.63368       -11.36018
   C      -10.89664       -14.68447        -8.48420
   C      -11.72117       -15.30119        -7.60015
   C      -12.66418       -16.28326        -7.98816
   C      -13.22117       -17.23382        -7.19011
   C      -14.41013       -17.99961        -7.66672
   O      -14.84357       -18.02275        -8.79348
   C      -14.94790       -18.66574        -6.46580
   C      -16.07883       -19.42055        -6.34119
   C      -16.41019       -19.95862        -5.07787
   C      -15.56504       -19.69123        -3.96132
   C      -15.90161       -20.22851        -2.70248
   C      -17.02106       -20.99972        -2.56019
   C      -17.85540       -21.26496        -3.66588
   C      -17.55801       -20.75492        -4.89879
   F      -18.94432       -22.02342        -3.49675
   F      -17.33636       -21.51360        -1.36640
   C      -14.39992       -18.90719        -4.12092
   C      -14.08785       -18.40957        -5.35868
   C      -12.93943       -17.63619        -5.82727
   C      -11.74853       -17.51739        -5.15872
   C      -10.54094       -17.03121        -5.70388
   N       -9.50821       -16.69498        -6.07689
   C      -11.54409       -17.96581        -3.83521
   N      -11.31707       -18.28096        -2.75536
   H      -11.90801        -0.79027         0.32238
   H       -9.48489        -3.87707        -2.70617
   H      -12.45544        -2.64467         1.81322
   H      -10.04211        -5.79306        -1.20965
   H      -13.35027        -7.80816         3.69572
   H      -12.24389       -12.51506         2.24864
   H       -9.72990       -11.64609         2.36073
   H      -10.35535        -7.48276         4.56076
   H       -7.85369        -6.67574         4.87455
   H       -6.69036        -9.61559         1.16554
   H       -9.64597       -10.01388         0.47765
   H       -5.65708       -11.10480         0.57229
   H       -3.09586       -13.02255         0.10985
   H       -3.31085       -11.33229         0.57328
   H       -2.45964       -11.75080        -0.92363
   H       -3.76262       -12.99877        -2.73103
   H       -5.87078       -13.06893        -3.96868
   H       -9.77672       -12.64868        -4.35989
   H       -6.98307       -11.99353        -5.44594
   H      -10.95174       -14.90342        -9.54133
   H      -11.62377       -15.06623        -6.54953
   H      -12.99797       -16.28248        -9.02054
   H      -16.70995       -19.60719        -7.19662
   H      -15.27295       -20.03819        -1.84666
   H      -18.20634       -20.96706        -5.73444
   H      -13.78527       -18.71581        -3.25599
*
