# ORCA input file
# SCF done       -227.671920885078          0.000863120716
! CAM-B3LYP def2-SVP def2/J RIJCOSX Grid4 TightSCF
%maxcore 5000
%tddft
    Mode sTDDFT
    Ethresh 5.0
    maxcore 5000
end

%pal
  nprocs 6
  end
* xyz 0 1
   C       -7.65020         2.29092        -3.03738
   C       -7.17249         2.71700        -4.24433
   F       -7.59883         3.87426        -4.76814
   C       -6.22778         1.94778        -4.95362
   F       -5.77628         2.39019        -6.13572
   C       -5.77501         0.76263        -4.44597
   C       -6.24850         0.29507        -3.20423
   C       -7.20221         1.07295        -2.48523
   C       -7.68827         0.62670        -1.23663
   C       -7.23270        -0.55953        -0.71979
   C       -6.28170        -1.32949        -1.44554
   C       -5.79908        -0.92649        -2.65657
   C       -5.94858        -2.54723        -0.68606
   O       -5.34082        -3.51648        -1.07967
   C       -6.71247        -2.42967         0.60137
   C       -7.54631        -1.24154         0.53068
   C       -8.42465        -0.80762         1.48471
   C       -9.18078         0.38055         1.38577
   N       -9.82768         1.32792         1.36050
   C       -8.71726        -1.49189         2.68479
   N       -9.01830        -1.99922         3.66888
   C       -6.61042        -3.33453         1.59919
   C       -5.53311        -4.28194         1.63287
   S       -5.74421        -5.96155         1.95731
   C       -4.03443        -6.24397         1.81257
   C       -3.33685        -5.06742         1.58983
   C       -4.20262        -3.97105         1.46774
   S       -3.63734        -2.27095         1.51125
   O       -3.97339        -1.78389         2.81948
   O       -4.11864        -1.48995         0.39737
   C       -1.83483        -2.43166         1.36658
   C       -1.40382        -3.60598         2.21945
   C       -1.84681        -4.93200         1.59847
   C       -3.58447        -7.58844         2.03805
   N       -2.63027        -8.27733         1.33011
   C       -2.04358        -7.89785         0.06270
   C       -0.51926        -7.85685         0.12111
   C       -2.48228        -9.60239         1.82054
   O       -1.73789       -10.41959         1.32264
   C       -3.39609        -9.67197         2.93415
   C       -4.07668        -8.43292         3.01902
   C       -5.00241        -8.51205         4.12826
   O       -5.79258        -7.71296         4.57890
   N       -4.82709        -9.81742         4.63876
   C       -5.57713       -10.22267         5.80640
   C       -4.71785       -10.22803         7.06728
   C       -3.87158       -10.51536         3.93724
   C       -3.40225       -11.84375         4.10578
   C       -3.83768       -12.79836         4.96496
   C       -3.30153       -14.10517         5.03780
   S       -1.95206       -14.66722         4.09914
   C       -2.05829       -16.25814         4.81272
   C       -3.10695       -16.33332         5.72599
   C       -3.76949       -15.11359         5.86061
   S       -5.16014       -14.88412         6.96326
   O       -6.35796       -15.00928         6.17722
   O       -4.99178       -13.66285         7.70286
   C       -4.99721       -16.32030         8.05532
   C       -4.80830       -17.52209         7.15295
   C       -3.41074       -17.55055         6.53595
   C       -1.19988       -17.31452         4.41626
   C        0.07343       -17.22863         3.94884
   C        0.66560       -18.34490         3.16123
   O        0.22593       -19.46529         3.05123
   C        1.85937       -17.76324         2.51352
   C        2.69647       -18.32612         1.59371
   C        3.77517       -17.56485         1.08983
   C        3.96322       -16.22761         1.54681
   C        5.03713       -15.47287         1.03366
   C        5.88645       -16.02039         0.11352
   C        5.70116       -17.34352        -0.33585
   C        4.66808       -18.10063         0.14137
   F        6.54878       -17.85403        -1.23844
   F        6.90693       -15.30200        -0.37179
   C        3.08575       -15.67327         2.50654
   C        2.05317       -16.43285         2.98679
   C        1.03796       -16.15019         3.99528
   C        1.13514       -15.21078         4.98843
   C        0.28360       -15.20938         6.11178
   N       -0.36171       -15.24192         7.06102
   C        2.14987       -14.23489         5.04825
   N        2.95262       -13.41867         5.12877
   H       -8.37221         2.89198        -2.50696
   H       -5.05239         0.18589        -5.00171
   H       -8.40919         1.23742        -0.71744
   H       -5.07645        -1.52896        -3.18479
   H       -7.31361        -3.36318         2.42077
   H       -1.42021        -1.48887         1.71417
   H       -1.61986        -2.56905         0.31026
   H       -1.84607        -3.49185         3.21178
   H       -0.31698        -3.60842         2.32879
   H       -1.42260        -5.76174         2.16655
   H       -1.45866        -4.98548         0.57673
   H       -2.46487        -6.93673        -0.23481
   H       -2.33920        -8.65148        -0.67622
   H       -0.16687        -7.16754         0.88319
   H       -0.12723        -7.54649        -0.84346
   H       -0.14014        -8.84882         0.34935
   H       -6.03855       -11.19769         5.63564
   H       -6.37319        -9.47912         5.91206
   H       -3.83975       -10.85693         6.94532
   H       -5.29697       -10.61881         7.89826
   H       -4.39459        -9.21677         7.30296
   H       -2.60195       -12.09495         3.41749
   H       -4.63804       -12.62489         5.66532
   H       -5.91176       -16.37613         8.63952
   H       -4.14607       -16.12874         8.70266
   H       -5.56223       -17.47025         6.36348
   H       -4.96638       -18.44533         7.71427
   H       -3.30631       -18.43948         5.90893
   H       -2.66043       -17.62827         7.33027
   H       -1.63055       -18.31171         4.41367
   H        2.53920       -19.33874         1.25481
   H        5.19510       -14.45999         1.36958
   H        4.53991       -19.11145        -0.21293
   H        3.24356       -14.65749         2.83271
*
