# ORCA input file
# SCF done       -203.766722945549          0.000374256526
! CAM-B3LYP def2-SVP def2/J RIJCOSX Grid4 TightSCF
%maxcore 5000
%tddft
    Mode sTDDFT
    Ethresh 5.0
    maxcore 5000
end

%pal
  nprocs 6
  end
* xyz 0 1
   C      -12.16188        -0.74082         7.39680
   C      -12.91745        -1.12016         8.47066
   F      -13.88942        -0.32137         8.92511
   C      -12.68503        -2.35422         9.11283
   F      -13.44148        -2.69910        10.16120
   C      -11.69913        -3.19165         8.67163
   C      -10.90396        -2.82905         7.56697
   C      -11.13734        -1.58169         6.91676
   C      -10.35222        -1.19745         5.80623
   C       -9.36209        -2.03379         5.35927
   C       -9.13957        -3.27909         6.01290
   C       -9.88301        -3.67781         7.08715
   C       -8.05142        -4.00416         5.33698
   O       -7.64340        -5.11544         5.59323
   C       -7.62455        -3.12566         4.21144
   C       -8.41162        -1.90346         4.26007
   C       -8.24377        -0.80268         3.46621
   C       -7.25779        -0.68415         2.46198
   N       -6.46698        -0.52082         1.64697
   C       -9.01914         0.37264         3.57158
   N       -9.62081         1.34849         3.61282
   C       -6.77346        -3.54015         3.23883
   C       -5.98755        -4.73211         3.32709
   C       -5.76734        -5.63197         2.32007
   C       -5.02607        -6.74857         2.84625
   C       -4.72056        -6.40419         4.24416
   C       -5.30264        -5.21039         4.52538
   C       -3.93832        -7.14522         5.13828
   N       -3.29089        -7.72756         5.88693
   C       -4.73130        -7.92039         2.20892
   C       -4.08792        -9.07959         2.77224
   C       -4.02573       -10.05636         1.82761
   C       -4.63792        -9.55734         0.60624
   C       -5.05894        -8.28283         0.81768
   C       -5.69448        -7.47511        -0.13158
   N       -6.21411        -6.83415        -0.93060
   C       -3.50908       -11.41310         2.01859
   S       -4.78886       -12.78819         1.75140
   C       -3.16964       -13.49445         1.23531
   C       -2.69062       -12.08839         0.91691
   N       -1.27256       -12.23516         0.68352
   C       -1.25101       -13.45689        -0.13298
   C       -2.60715       -14.27842         0.06488
   C       -2.36380       -15.70866         0.34350
   C       -2.80584       -16.77754        -0.37077
   C       -2.32923       -17.98726         0.24368
   C       -1.54874       -17.55833         1.42225
   C       -1.57444       -16.20178         1.46426
   C       -0.89860       -18.37644         2.35216
   N       -0.35972       -19.00990         3.14441
   C       -2.51519       -19.27293        -0.18022
   C       -1.96942       -20.46746         0.39775
   C       -2.26035       -21.53137        -0.41584
   C       -3.08295       -21.04505        -1.51840
   C       -3.25738       -19.70660        -1.37657
   C       -4.02417       -18.90315        -2.22895
   N       -4.66734       -18.27649        -2.94452
   C       -1.85736       -22.88337        -0.21579
   C       -1.65437       -23.83113        -1.16468
   C       -1.62833       -25.27750        -0.79457
   O       -1.54714       -25.73561         0.31895
   C       -1.78445       -26.00155        -2.07198
   C       -1.93391       -27.34240        -2.28232
   C       -2.08362       -27.81802        -3.60403
   C       -2.08322       -26.88997        -4.68637
   C       -2.23673       -27.37112        -6.00227
   C       -2.38012       -28.71046        -6.23313
   C       -2.37939       -29.62764        -5.16203
   C       -2.23453       -29.19212        -3.87462
   F       -2.52301       -30.93342        -5.41836
   F       -2.52327       -29.16629        -7.48295
   C       -1.92298       -25.50769        -4.43929
   C       -1.76801       -25.07019        -3.15061
   C       -1.53965       -23.73495        -2.60695
   C       -1.06717       -22.65699        -3.30707
   C       -0.57272       -21.48083        -2.70313
   N       -0.09147       -20.53514        -2.26576
   C       -0.91877       -22.64136        -4.71029
   N       -0.80397       -22.57969        -5.85006
   H      -12.35308         0.20693         6.91819
   H      -11.53368        -4.13253         9.17271
   H      -10.55802        -0.25130         5.33230
   H       -9.69295        -4.62821         7.56230
   H       -6.70411        -2.98981         2.30880
   H       -6.15242        -5.57215         1.32060
   H       -5.22493        -4.66748         5.44773
   H       -3.72951        -9.14315         3.78052
   H       -4.74963       -10.11558        -0.30457
   H       -3.08774       -11.54442         3.01709
   H       -2.72442       -13.85850         2.16683
   H       -3.12223       -11.78081        -0.04301
   H       -0.76327       -12.35908         1.55383
   H       -0.38335       -14.06892         0.11138
   H       -1.17695       -13.16112        -1.18074
   H       -3.23494       -14.17560        -0.82237
   H       -3.41003       -16.74529        -1.25555
   H       -1.08839       -15.58978         2.20260
   H       -1.36615       -20.49906         1.28361
   H       -3.52200       -21.66424        -2.27965
   H       -1.74654       -23.21061         0.81313
   H       -1.93566       -28.03097        -1.45115
   H       -2.23593       -26.68340        -6.83346
   H       -2.23585       -29.90651        -3.06635
   H       -1.93422       -24.82657        -5.27535
*
