# ORCA input file
# SCF done       -188.146108907825          0.000673910138
! CAM-B3LYP def2-SVP def2/J RIJCOSX Grid4 TightSCF
%maxcore 5000
%tddft
    Mode sTDDFT
    Ethresh 5.0
    maxcore 5000
end

%pal
  nprocs 6
  end
* xyz 0 1
   C        3.55042        -0.06170         0.80238
   N        3.28059         0.65404        -0.31749
   C        3.58700         0.26276        -1.67059
   C        2.56898        -0.74000        -2.20758
   C        2.57521         1.84299        -0.01234
   O        2.22320         2.64142        -0.85841
   C        2.43772         1.80846         1.42294
   C        3.05753         0.60924         1.88991
   C        2.93997         0.57658         3.33458
   O        3.30339        -0.22410         4.16591
   N        2.26439         1.77239         3.64734
   C        1.90066         2.08337         5.00812
   C        0.42961         1.78346         5.28738
   C        1.95520         2.51104         2.52495
   C        1.28768         3.75676         2.56797
   C        0.93139         4.44067         1.44383
   C        0.26407         5.68662         1.43671
   C       -0.18439         6.34774         0.30428
   C       -0.81393         7.55781         0.68330
   C       -0.71246         7.62899         2.15205
   C       -0.07743         6.50705         2.58694
   C       -1.15430         8.66228         2.98436
   N       -1.48673         9.49118         3.70853
   C       -1.42410         8.49543        -0.13047
   C       -2.06991         9.68434         0.27219
   C       -2.54400        10.34726        -0.84967
   C       -2.19663         9.55037        -2.01689
   C       -1.53007         8.44241        -1.60372
   C       -1.04265         7.44215        -2.45181
   N       -0.66300         6.64369        -3.18521
   C       -3.22858        11.57383        -0.90678
   S       -3.75433        12.25602        -2.40923
   C       -4.38322        13.67285        -1.60817
   C       -4.23752        13.59034        -0.22177
   C       -3.56537        12.42157         0.16886
   O       -3.20506        12.05720         1.40986
   C       -2.99608        13.08911         2.36274
   C       -4.28388        13.58498         3.01783
   C       -5.39236        13.82774         1.99307
   C       -4.90138        14.54260         0.73115
   C       -4.94547        14.70153        -2.39477
   C       -5.21144        16.01765        -2.05380
   C       -5.75728        16.68723        -3.17395
   C       -5.84143        15.69080        -4.25574
   C       -5.34377        14.51873        -3.78288
   C       -6.42067        15.86020        -5.51974
   N       -6.92386        15.93217        -6.54942
   C       -6.13668        18.01574        -3.24982
   C       -6.55165        18.73323        -4.39507
   C       -6.89608        20.02642        -4.02872
   C       -6.68102        20.14770        -2.59809
   C       -6.20808        18.96051        -2.12575
   C       -5.89099        18.70062        -0.79023
   N       -5.63940        18.51152         0.31580
   C       -7.35648        20.99698        -4.95672
   N       -8.05563        22.14965        -4.68628
   C       -8.48962        22.65581        -3.40625
   C       -7.46359        23.61253        -2.80240
   C       -8.39568        22.85007        -5.85909
   O       -9.03024        23.88589        -5.85287
   C       -7.83812        22.05528        -6.92865
   C       -7.21239        20.92527        -6.34488
   C       -6.61231        20.15187        -7.40951
   O       -5.94462        19.14117        -7.42184
   N       -6.95994        20.85859        -8.58513
   C       -6.52263        20.39247        -9.87836
   C       -5.30099        21.16083       -10.37671
   C       -7.67887        21.98931        -8.31062
   C       -8.16449        22.88566        -9.31910
   C       -8.84735        23.99739        -9.03427
   H        4.08209        -0.99397         0.75159
   H        4.59465        -0.16143        -1.69955
   H        3.56133         1.17500        -2.27266
   H        2.55917        -1.64159        -1.59870
   H        2.82074        -1.00996        -3.22921
   H        1.57426        -0.30127        -2.19845
   H        2.13338         3.13072         5.22176
   H        2.52972         1.44904         5.63912
   H       -0.21947         2.36766         4.63846
   H        0.19518         2.01872         6.32194
   H        0.22862         0.72871         5.11679
   H        1.05370         4.16309         3.54108
   H        1.15657         4.01498         0.47481
   H       -0.08037         5.99170        -0.70204
   H        0.14734         6.27540         3.61151
   H       -2.18133        10.01529         1.28335
   H       -2.43911         9.81664        -3.02948
   H       -2.46538        13.91829         1.88070
   H       -2.33901        12.63995         3.11169
   H       -4.05186        14.50987         3.54801
   H       -4.62904        12.85201         3.74786
   H       -6.17442        14.42834         2.45964
   H       -5.83945        12.87339         1.70449
   H       -4.23619        15.36738         1.00130
   H       -5.76278        14.97741         0.22097
   H       -4.97146        16.49927        -1.12896
   H       -5.27523        13.58847        -4.31625
   H       -6.58364        18.33518        -5.38950
   H       -6.81881        21.02887        -2.00245
   H       -8.70420        21.81711        -2.74098
   H       -9.41853        23.20437        -3.59095
   H       -6.48841        23.13905        -2.70855
   H       -7.79415        23.93931        -1.82010
   H       -7.35907        24.48506        -3.44241
   H       -7.34740        20.46428       -10.59263
   H       -6.26239        19.33852        -9.74493
   H       -5.51888        22.22220       -10.47541
   H       -4.99399        20.77419       -11.34450
   H       -4.47738        21.03994        -9.67746
   H       -7.95823        22.62048       -10.34682
   H       -9.06658        24.28134        -8.01845
   H       -9.20416        24.64632        -9.81535
*
