# ORCA input file
# SCF done       -232.050651767447          0.000640614401
! CAM-B3LYP def2-SVP def2/J RIJCOSX Grid4 TightSCF
%maxcore 5000
%tddft
    Mode sTDDFT
    Ethresh 5.0
    maxcore 5000
end

%pal
  nprocs 6
  end
* xyz 0 1
   C       -5.15014        -1.54851        -4.16490
   N       -4.02313        -1.45616        -3.41278
   C       -3.23977        -2.56508        -2.92456
   C       -3.91763        -3.25131        -1.74204
   C       -3.73043        -0.11688        -3.09211
   O       -2.76216         0.22236        -2.42937
   C       -4.78488         0.63726        -3.72223
   C       -5.64568        -0.28966        -4.38153
   C       -6.70242         0.46473        -5.03116
   O       -7.64748         0.13174        -5.70538
   N       -6.40247         1.80875        -4.71886
   C       -7.25895         2.88473        -5.15585
   C       -8.19486         3.35410        -4.04487
   C       -5.27567         1.92561        -3.94169
   C       -4.74025         3.14939        -3.48224
   C       -3.60875         3.17034        -2.72003
   C       -2.97116         4.30500        -2.20587
   S       -3.51790         5.95454        -2.40098
   C       -2.20551         6.64302        -1.46416
   C       -1.34426         5.60953        -1.05017
   C       -1.79088         4.32089        -1.46431
   N       -0.89079         3.39575        -1.06395
   C        0.12829         4.06378        -0.43125
   N        1.23117         3.33809         0.07124
   O        1.17638         2.12617        -0.04675
   O        2.14558         3.95913         0.56544
   C       -0.09998         5.42410        -0.41094
   C       -2.11123         8.00427        -1.13689
   N       -2.67813         9.05565        -1.82119
   C       -3.36905         9.02213        -3.08845
   C       -2.42686         8.71845        -4.24898
   C       -2.39051        10.29504        -1.21199
   O       -2.76459        11.36361        -1.64267
   C       -1.62274         9.93847        -0.04150
   C       -1.45544         8.54877        -0.01346
   C       -0.84149         8.21736         1.26463
   O       -0.57407         7.15580         1.78280
   N       -0.63314         9.45851         1.89560
   C        0.02155         9.50608         3.18359
   C        1.50269         9.85058         3.05866
   C       -1.09765        10.50384         1.13598
   C       -1.18575        11.87606         1.40030
   C       -0.71366        12.59170         2.47439
   C       -0.97245        13.95098         2.68923
   C       -0.20433        14.83065         3.46816
   N        0.89208        14.52388         4.28740
   O        1.24297        13.35497         4.38909
   O        1.43853        15.44752         4.86479
   C       -0.67138        16.16194         3.26631
   C       -1.70347        16.14266         2.36892
   C       -1.98858        14.78909         2.02285
   C       -3.12150        14.35568         1.35659
   C       -3.85114        13.14151         1.59145
   C       -5.02620        13.20723         0.91889
   C       -5.08388        14.45083         0.19500
   N       -6.15152        14.71640        -0.68114
   O       -6.26623        15.83045        -1.16745
   O       -6.92230        13.79929        -0.90658
   C       -3.92449        15.17874         0.44140
   C       -3.40337        16.36890        -0.13656
   C       -4.10583        17.47233        -0.50055
   C       -3.49511        18.62209        -1.05645
   C       -4.05221        19.86523        -1.10117
   C       -3.57533        20.89979        -2.05798
   O       -2.54477        20.88694        -2.68873
   C       -4.65820        21.90620        -2.10083
   C       -4.77728        23.00313        -2.90424
   C       -5.92252        23.82245        -2.78390
   C       -6.92845        23.48472        -1.83215
   C       -8.07003        24.30370        -1.72153
   C       -8.20559        25.40728        -2.51621
   C       -7.20988        25.74096        -3.45627
   C       -6.09168        24.96615        -3.58828
   F       -7.36966        26.82810        -4.22265
   F       -9.29020        26.18544        -2.40863
   C       -6.77571        22.34565        -1.00875
   C       -5.65433        21.57117        -1.13798
   C       -5.21343        20.38300        -0.41378
   C       -5.66599        19.97395         0.81451
   C       -4.98681        19.02889         1.61095
   N       -4.42008        18.31981         2.31414
   C       -6.77382        20.54883         1.47091
   N       -7.67623        20.97810         2.03490
   H       -5.51690        -2.50063        -4.50033
   H       -2.27562        -2.15360        -2.61491
   H       -3.08206        -3.27656        -3.73984
   H       -4.05495        -2.54523        -0.92674
   H       -3.29978        -4.07226        -1.39006
   H       -4.89003        -3.64432        -2.03048
   H       -7.84804         2.48367        -5.98523
   H       -6.64613         3.71163        -5.52561
   H       -8.82786         2.53149        -3.72201
   H       -8.82901         4.15559        -4.41292
   H       -7.63347         3.71696        -3.18661
   H       -5.23227         4.07514        -3.74453
   H       -3.13302         2.22924        -2.47368
   H       -0.92009         2.39304        -1.18929
   H        0.54572         6.15431         0.02671
   H       -3.79419        10.02262        -3.21207
   H       -4.18753         8.29898        -3.04832
   H       -1.64422         9.47127        -4.29963
   H       -2.98239         8.73275        -5.18184
   H       -1.96280         7.74149        -4.13577
   H       -0.08334         8.50426         3.61033
   H       -0.49882        10.21737         3.82840
   H        2.02256         9.06816         2.51121
   H        1.94104         9.93482         4.04836
   H        1.64870        10.79445         2.53951
   H       -1.69593        12.41484         0.61099
   H       -0.03008        12.13998         3.17862
   H       -0.25909        17.01980         3.76332
   H       -2.31339        16.98273         2.09676
   H       -3.55198        12.37321         2.27709
   H       -5.81705        12.48201         0.90341
   H       -2.32202        16.41103        -0.20038
   H       -5.17609        17.49345        -0.35981
   H       -2.53958        18.50561        -1.55680
   H       -4.00832        23.24385        -3.62244
   H       -8.84027        24.06410        -1.00520
   H       -5.33896        25.23511        -4.31268
   H       -7.55444        22.10705        -0.30181
*
