# ORCA input file
# SCF done       -184.157485919210          0.000848780637
! CAM-B3LYP def2-SVP def2/J RIJCOSX Grid4 TightSCF
%maxcore 5000
%tddft
    Mode sTDDFT
    Ethresh 5.0
    maxcore 5000
end

%pal
  nprocs 6
  end
* xyz 0 1
   C        6.25662        -6.25893        -0.76977
   C        5.17583        -6.99194        -0.39444
   C        4.81634        -8.41322        -0.22332
   O        5.48210        -9.40771        -0.34527
   N        3.46674        -8.39194         0.11530
   C        2.69600        -9.58726         0.35363
   C        2.90703        -7.12192         0.15797
   O        1.73091        -6.90163         0.32020
   C        4.03099        -6.20534        -0.09948
   C        4.24946        -4.85600        -0.23704
   S        5.88838        -4.57557        -0.78115
   C        3.35752        -3.77088         0.02634
   C        2.34369        -3.88777         1.00070
   C        1.28351        -2.91512         1.12334
   N        0.21995        -3.20975         1.88834
   C        0.21136        -4.31740         2.58421
   C        1.38088        -5.14939         2.64402
   N        2.39434        -4.91796         1.85475
   C        1.45821        -6.22497         3.56304
   N        1.49658        -7.10276         4.29742
   C       -0.94233        -4.66079         3.33176
   N       -1.85519        -4.96436         3.95347
   C        1.30653        -1.71685         0.38205
   C        2.42294        -1.52837        -0.45850
   C        3.41796        -2.55262        -0.66473
   N        4.33137        -2.18236        -1.56618
   S        3.98896        -0.69891        -2.06403
   N        2.69156        -0.43413        -1.17315
   C        0.24369        -0.75639         0.26694
   N       -0.52271        -0.19802         1.24359
   C       -0.44974        -0.40216         2.67291
   C       -1.69675        -1.10987         3.19340
   C       -1.40274         0.77632         0.71650
   O       -2.13615         1.45359         1.40389
   C       -1.16493         0.74568        -0.71037
   C       -0.13903        -0.19277        -0.95168
   C        0.06006        -0.29131        -2.38412
   O        0.79172        -0.97500        -3.06859
   N       -0.85940         0.63092        -2.91718
   C       -0.92272         0.87663        -4.33755
   C       -0.15188         2.13458        -4.73023
   C       -1.58807         1.26681        -1.93893
   C       -2.55437         2.26149        -2.19749
   C       -3.18678         2.94927        -1.20263
   C       -4.11103         3.99661        -1.41610
   C       -4.63831         4.81073        -0.43135
   C       -5.47568         5.79343        -1.02856
   C       -5.46791         5.50622        -2.47740
   C       -4.64791         4.44673        -2.69476
   C       -6.16971         6.18684        -3.47906
   N       -6.72978         6.71484        -4.33177
   C       -6.12076         6.84208        -0.41453
   C       -6.90824         7.85670        -1.03727
   C       -7.31798         8.75533        -0.08189
   C       -6.80190         8.31852         1.20974
   C       -6.09094         7.17668         1.02172
   C       -5.44016         6.46160         2.03426
   N       -4.91448         5.89517         2.88387
   C       -8.09469         9.92514        -0.29897
   C       -8.50283        10.91240         0.57038
   C       -8.38205        11.25479         1.99791
   O       -7.82315        10.68577         2.90310
   N       -9.07123        12.45398         2.14005
   C       -9.18699        13.13889         3.40383
   C       -9.62519        12.94101         0.96145
   O      -10.24499        13.96754         0.86209
   C       -9.25985        11.93849        -0.05679
   C       -9.44095        11.75227        -1.39008
   S       -8.67991        10.30183        -1.91480
   H        7.23510        -6.59790        -1.04651
   H        3.33556       -10.44286         0.14520
   H        1.82233        -9.60012        -0.29864
   H        2.36138        -9.61608         1.39172
   H       -0.37479         0.58498         3.14102
   H        0.45011        -0.97446         2.89864
   H       -2.57181        -0.49176         3.01366
   H       -1.60355        -1.28017         4.26204
   H       -1.82679        -2.06669         2.69606
   H       -1.96775         0.94278        -4.65238
   H       -0.46788         0.00429        -4.81518
   H       -0.55804         3.01369        -4.23457
   H       -0.20830         2.28056        -5.80537
   H        0.89275         2.03126        -4.44713
   H       -2.76503         2.49548        -3.23080
   H       -2.95609         2.71796        -0.17091
   H       -4.43074         4.73213         0.61779
   H       -4.44137         4.00359        -3.65118
   H       -7.13014         7.90919        -2.08537
   H       -6.96708         8.83368         2.13730
   H       -8.28415        12.95701         3.98511
   H      -10.05084        12.77183         3.96169
   H       -9.31094        14.20285         3.20906
   H       -9.96712        12.36946        -2.09084
*
