# ORCA input file
# SCF done       -216.225112061151          0.000538181884
! CAM-B3LYP def2-SVP def2/J RIJCOSX Grid4 TightSCF
%maxcore 5000
%tddft
    Mode sTDDFT
    Ethresh 5.0
    maxcore 5000
end

%pal
  nprocs 6
  end
* xyz 0 1
   C        3.77637         2.12354        -7.35392
   C        4.66940         1.43154        -6.32221
   C        4.62761         2.86198        -8.39093
   C        2.74059         3.03635        -6.73494
   C        1.51002         2.58238        -7.07258
   C        1.68560         1.38767        -7.88223
   C        0.71580         0.60167        -8.43174
   C       -0.65794         0.86303        -8.25969
   N       -1.78518         1.03137        -8.13654
   C        1.04757        -0.53475        -9.20037
   N        1.31226        -1.46280        -9.81852
   O        2.99054         1.12689        -8.01855
   C        0.29395         3.16647        -6.67126
   N       -0.64673         3.68465        -6.27426
   C        3.06007         4.21131        -5.95071
   C        3.17793         5.49948        -6.41468
   N        2.97441         5.93061        -7.74146
   O        3.26515         7.08003        -8.00693
   O        2.53773         5.12207        -8.54178
   C        3.61387         6.36942        -5.34350
   C        3.82677         5.60937        -4.25129
   C        3.49263         4.22920        -4.56460
   C        3.51119         3.16711        -3.68094
   C        2.61435         2.06350        -3.62013
   C        2.77441         1.43716        -2.41404
   C        3.85204         2.05158        -1.70463
   N        4.33823         1.59145        -0.46845
   O        5.29684         2.17000         0.02252
   O        3.77019         0.64647         0.04429
   C        4.36889         3.09233        -2.47745
   C        5.56118         3.81057        -2.30194
   C        6.20597         4.38743        -3.36882
   C        7.25547         5.31340        -3.43897
   N        7.98242         5.95654        -2.46635
   C        7.97808         5.69254        -1.04518
   C        8.72639         4.40905        -0.70034
   C        8.81750         6.93838        -3.01249
   O        9.57166         7.63255        -2.35374
   C        8.55647         6.90500        -4.44016
   C        7.62540         5.88277        -4.66717
   C        7.28098         5.87513        -6.07327
   O        6.52701         5.17274        -6.71419
   N        8.03736         6.93122        -6.61610
   C        7.98514         7.25219        -8.02375
   C        9.21124         6.73235        -8.76839
   C        8.79450         7.55897        -5.66343
   C        9.58850         8.70933        -5.87666
   C       10.26231         9.25304        -4.82977
   C       11.00579        10.45406        -4.82070
   S       11.45610        11.31781        -6.25870
   C       12.28221        12.52125        -5.32908
   C       12.20112        12.26861        -3.97875
   C       11.46351        11.10277        -3.68354
   C       11.14869        10.66359        -2.29225
   N        9.65841        10.56917        -2.05926
   O        9.32741        10.25812        -0.94958
   O        8.91915        10.84433        -2.96925
   C       11.68795        11.64071        -1.23806
   C       13.04366        12.19576        -1.65112
   C       12.87897        13.06427        -2.89993
   N       14.22851        13.47627        -3.37684
   O       15.02664        12.60267        -3.58773
   O       14.41561        14.65926        -3.53203
   C       12.95808        13.60010        -6.02584
   C       14.20032        13.57509        -6.56476
   C       14.43299        14.86739        -7.19276
   C       15.56057        15.29451        -7.82657
   C       16.70820        14.48657        -7.95934
   N       17.65691        13.85901        -8.09782
   C       15.62936        16.58595        -8.39472
   N       15.68736        17.62993        -8.86266
   O       13.33913        15.63019        -7.06625
   C       12.30881        14.92310        -6.37120
   C       11.88517        15.73993        -5.15096
   C       11.12660        14.70595        -7.32383
   C       15.07805        12.47228        -6.54739
   N       15.70741        11.51662        -6.53380
   H        4.07163         0.93014        -5.56396
   H        5.31988         2.16046        -5.84808
   H        5.27819         0.68976        -6.83224
   H        5.25534         3.59999        -7.89874
   H        3.98597         3.35795        -9.11553
   H        5.25452         2.14103        -8.90859
   H        3.72203         7.43083        -5.45111
   H        4.08925         5.95155        -3.26991
   H        1.84046         1.86286        -4.33559
   H        2.20375         0.61213        -2.03026
   H        5.97667         3.82207        -1.30428
   H        5.84739         4.13401        -4.35913
   H        6.94526         5.65247        -0.69048
   H        8.47434         6.54832        -0.57876
   H        8.29656         3.55134        -1.21189
   H        8.67147         4.23331         0.36972
   H        9.77186         4.49573        -0.98636
   H        7.88450         8.33378        -8.14482
   H        7.08311         6.77282        -8.41293
   H       10.12437         7.17453        -8.37594
   H        9.12867         6.97833        -9.82290
   H        9.27913         5.65177        -8.66992
   H        9.60617         9.17279        -6.85233
   H       10.21857         8.73593        -3.88119
   H       11.52632         9.65129        -2.10657
   H       11.76288        11.13216        -0.27791
   H       10.98657        12.47131        -1.11963
   H       13.73741        11.38277        -1.87600
   H       13.46036        12.79329        -0.83933
   H       12.33227        13.98653        -2.67327
   H       12.73824        15.90364        -4.49620
   H       11.09417        15.22257        -4.61469
   H       11.51686        16.70564        -5.48530
   H       11.43450        14.11477        -8.18404
   H       10.77389        15.67200        -7.67379
   H       10.31932        14.19326        -6.80858
*
