# ORCA input file
# SCF done       -222.707781068260          0.000678304662
! CAM-B3LYP def2-SVP def2/J RIJCOSX Grid4 TightSCF
%maxcore 5000
%tddft
    Mode sTDDFT
    Ethresh 5.0
    maxcore 5000
end

%pal
  nprocs 6
  end
* xyz 0 1
   C        2.39766         0.74507        -2.16223
   C        3.68553         0.52792        -2.56068
   C        4.23248        -0.74754        -2.81954
   N        4.72307        -1.75885        -3.04881
   C        4.61277         1.56539        -2.80013
   N        5.38417         2.38094        -3.03693
   C        1.35915        -0.25752        -1.97034
   C        0.12794         0.39320        -1.65146
   C       -1.02038        -0.31141        -1.42277
   C       -0.99116        -1.72113        -1.49904
   C        0.23483        -2.37851        -1.81222
   C        1.40704        -1.62525        -2.04669
   C        0.25206        -3.78658        -1.88102
   C       -0.88544        -4.51202        -1.65187
   C       -2.09142        -3.86414        -1.34400
   C       -2.14356        -2.49851        -1.26937
   C        0.34255         1.84200        -1.60420
   O       -0.45175         2.73223        -1.38857
   C        1.79436         2.03834        -1.87585
   C        2.34913         3.25570        -1.73068
   C        1.56451         4.40574        -1.31597
   C        1.47677         4.82015        -0.01418
   N        2.06137         4.13289         1.06271
   O        1.84460         4.53277         2.18769
   O        2.75659         3.16336         0.78803
   C        0.63833         6.00038         0.08034
   C        0.27205         6.34618        -1.16841
   C        0.83838         5.40097        -2.11696
   C        0.70747         5.39835        -3.48054
   C        0.87009         4.25489        -4.34018
   C        0.26721         4.51200        -5.52599
   C       -0.20861         5.87150        -5.52274
   N       -0.81039         6.45940        -6.65429
   O       -1.15117         7.62886        -6.59457
   O       -0.96122         5.75068        -7.63209
   C        0.11056         6.47017        -4.31242
   C        0.05631         7.85247        -4.01820
   C        0.88909         8.47078        -3.13594
   C        0.88649         9.85791        -2.87332
   O        0.01607        10.72414        -3.45954
   C        1.71214        10.58055        -2.02516
   C        2.82118        10.46872        -1.06626
   O        3.43573         9.50900        -0.68613
   N        3.02431        11.78285        -0.65456
   C        2.17536        12.72970        -1.22796
   O        2.19100        13.90897        -1.00107
   C        1.32223        11.92938        -2.11769
   C        0.26695        11.98511        -3.01883
   C       -0.47228        13.10709        -3.45893
   C       -1.52353        13.04579        -4.31826
   C       -2.26062        14.17512        -4.75438
   C       -3.38557        14.15105        -5.55212
   C       -3.83900        15.48552        -5.76941
   C       -2.89169        16.35691        -5.04667
   C       -1.96732        15.56928        -4.44110
   C       -2.92554        17.75470        -4.96801
   N       -2.92440        18.89998        -4.88421
   C       -4.93841        15.89928        -6.48478
   C       -5.36434        17.23654        -6.72822
   C       -6.52418        17.21970        -7.47466
   C       -6.87099        15.82260        -7.72647
   C       -5.93357        15.03091        -7.14886
   C       -5.94104        13.63056        -7.16554
   N       -5.97780        12.48320        -7.19066
   C       -7.24571        18.35823        -7.90536
   C       -8.41998        18.31807        -8.59543
   C       -9.09738        19.49769        -8.97833
   C      -10.29922        19.52464        -9.62789
   C      -11.04669        20.70294       -10.03038
   C      -10.62402        22.00575        -9.96657
   C      -11.39781        23.10933       -10.38541
   N      -11.97078        24.05187       -10.70272
   C       -9.36502        22.44090        -9.50173
   N       -8.36413        22.87695        -9.14581
   C      -12.33298        20.25652       -10.55297
   C      -12.36428        18.83244       -10.53502
   C      -11.10020        18.31939        -9.98601
   O      -10.78707        17.15527        -9.84946
   C      -13.45032        18.12786       -10.96951
   C      -14.58034        18.82853       -11.44588
   C      -14.55963        20.25351       -11.46300
   C      -13.41880        20.95547       -11.01117
   C      -15.69481        20.94331       -11.93516
   C      -16.79835        20.26025       -12.36896
   C      -16.81749        18.85747       -12.35189
   C      -15.73189        18.15665       -11.90082
   H       -1.93951         0.20207        -1.18249
   H        2.32075        -2.15031        -2.27665
   H        1.18252        -4.28083        -2.11829
   H       -0.86217        -5.58991        -1.70620
   H       -2.97874        -4.45259        -1.16558
   H       -3.06883        -1.99448        -1.03206
   H        3.41400         3.41451        -1.85023
   H        0.37319         6.46409         1.01042
   H       -0.39052         7.14256        -1.44132
   H        1.30546         3.32446        -4.03841
   H        0.15168         3.84977        -6.36332
   H       -0.61455         8.45324        -4.61891
   H        1.65045         7.92118        -2.60083
   H        3.73595        12.03445         0.01725
   H       -0.13868        14.04585        -3.04208
   H       -1.83871        12.08272        -4.69808
   H       -3.85316        13.27220        -5.95120
   H       -1.14894        15.91372        -3.83764
   H       -4.85522        18.11506        -6.38334
   H       -7.72746        15.48611        -8.27970
   H       -6.81854        19.32008        -7.64618
   H       -8.87116        17.37377        -8.85943
   H       -8.62147        20.43403        -8.71529
   H      -13.44744        17.04818       -10.94620
   H      -13.43702        22.03335       -11.03522
   H      -15.67512        22.02314       -11.94742
   H      -17.66322        20.79756       -12.72793
   H      -17.69693        18.33503       -12.69723
   H      -15.74095        17.07668       -11.88474
*
