# ORCA input file
# SCF done       -226.645867468872          0.000518292966
! CAM-B3LYP def2-SVP def2/J RIJCOSX Grid4 TightSCF
%maxcore 5000
%tddft
    Mode sTDDFT
    Ethresh 5.0
    maxcore 5000
end

%pal
  nprocs 6
  end
* xyz 0 1
   C      -11.38129         2.01686       -10.08701
   C      -12.28165         2.45292       -11.01759
   F      -12.06852         3.60002       -11.67516
   C      -13.44367         1.70503       -11.29763
   F      -14.30839         2.15815       -12.21469
   C      -13.68929         0.53155       -10.64173
   C      -12.78138         0.05571        -9.67547
   C      -11.60525         0.81046        -9.39241
   C      -10.67907         0.35207        -8.42935
   C      -10.92164        -0.82531        -7.77019
   C      -12.09924        -1.57294        -8.05953
   C      -13.01297        -1.15266        -8.98200
   C      -12.12486        -2.78503        -7.22182
   O      -13.05453        -3.52672        -7.01207
   C      -10.78091        -2.82425        -6.56397
   C      -10.14456        -1.53354        -6.75959
   C       -9.04228        -1.06021        -6.10186
   C       -8.37430        -1.76308        -5.07644
   N       -7.81281        -2.29133        -4.22584
   C       -8.46990         0.20935        -6.33094
   N       -7.96668         1.23030        -6.47509
   C      -10.26892        -3.93204        -5.98325
   C      -10.86924        -5.23205        -6.03828
   C      -11.34830        -5.91954        -7.13731
   N      -11.41181        -5.51069        -8.48255
   O      -11.02059        -4.39173        -8.78778
   O      -11.83330        -6.31794        -9.28922
   C      -11.68895        -7.26622        -6.73980
   C      -11.38633        -7.42742        -5.42953
   C      -10.86516        -6.18916        -4.91814
   C      -10.53231        -5.84143        -3.62307
   C      -10.56314        -4.50675        -3.11815
   C      -10.31763        -4.53074        -1.77912
   C      -10.03808        -5.87414        -1.37752
   N       -9.86739        -6.17041        -0.01300
   O       -9.89553        -7.33534         0.36083
   O       -9.73414        -5.22776         0.74718
   C      -10.12659        -6.71861        -2.49711
   C       -9.74703        -8.05954        -2.66919
   C       -8.96318        -8.78470        -1.80410
   C       -8.70910       -10.15566        -1.95125
   N       -7.90982       -10.87099        -1.09307
   C       -7.21643       -10.35996         0.06824
   C       -8.15513       -10.15890         1.25507
   C       -7.87538       -12.24004        -1.40943
   O       -7.24130       -13.06872        -0.79685
   C       -8.72924       -12.34838        -2.57951
   C       -9.21519       -11.07245        -2.89589
   C      -10.08307       -11.21511        -4.04425
   O      -10.73098       -10.40688        -4.67758
   N      -10.06893       -12.59358        -4.34240
   C      -10.79039       -13.07481        -5.49696
   C       -9.85702       -13.37620        -6.66689
   C       -9.26434       -13.28954        -3.47230
   C       -9.00064       -14.67222        -3.36083
   C       -9.50314       -15.71394        -4.08270
   C       -9.18588       -17.02473        -3.78756
   C       -8.93794       -18.19519        -3.53592
   C       -8.68356       -19.47618        -3.25381
   C       -8.46393       -20.64889        -2.98856
   C       -8.22869       -21.97639        -2.69193
   C       -9.06201       -22.97802        -3.08389
   C       -8.82390       -24.32943        -2.74667
   C       -9.52680       -25.42447        -3.15167
   C       -9.40495       -26.69684        -2.38515
   O       -8.55096       -26.97264        -1.57592
   C      -10.57923       -27.49923        -2.78152
   C      -11.00694       -28.69600        -2.28289
   C      -12.19233       -29.26920        -2.79502
   C      -12.91675       -28.58434        -3.81392
   C      -14.10371       -29.15684        -4.31371
   C      -14.54891       -30.35385        -3.82714
   C      -13.83062       -31.03130        -2.82075
   C      -12.67667       -30.50161        -2.31484
   F      -14.29137       -32.20178        -2.36218
   F      -15.67635       -30.89613        -4.30299
   C      -12.44557       -27.34966        -4.31599
   C      -11.28893       -26.81763        -3.81184
   C      -10.55694       -25.59928        -4.15287
   C      -10.69203       -24.89641        -5.32109
   C       -9.79016       -23.90306        -5.75927
   N       -9.06275       -23.12357        -6.18376
   C      -11.69199       -25.16053        -6.28098
   N      -12.49825       -25.32039        -7.08180
   H      -10.49734         2.60142        -9.88491
   H      -14.58234        -0.02960       -10.86799
   H       -9.79428         0.93943        -8.24220
   H      -13.89542        -1.73921        -9.18640
   H       -9.32040        -3.88204        -5.46224
   H      -12.11360        -7.98826        -7.41020
   H      -11.59031        -8.30852        -4.85658
   H      -10.86143        -3.64688        -3.68451
   H      -10.33805        -3.70221        -1.09651
   H      -10.06362        -8.54339        -3.58077
   H       -8.52317        -8.30270        -0.94748
   H       -6.70963        -9.42715        -0.19176
   H       -6.46253       -11.11184         0.31861
   H       -8.90877        -9.40360         1.04590
   H       -7.57900        -9.84207         2.11974
   H       -8.65392       -11.09446         1.49639
   H      -11.47192       -12.26602        -5.77757
   H      -11.39048       -13.94587        -5.22171
   H       -9.35274       -12.46537        -6.98017
   H      -10.43164       -13.75797        -7.50616
   H       -9.10116       -14.11010        -6.39594
   H       -8.31815       -14.90366        -2.55145
   H      -10.18618       -15.57623        -4.90867
   H       -7.32727       -22.20240        -2.13414
   H       -9.95306       -22.72378        -3.64009
   H       -8.04428       -24.52810        -2.01767
   H      -10.44908       -29.19817        -1.50728
   H      -14.66372       -28.65359        -5.08639
   H      -12.13883       -31.03221        -1.54484
   H      -13.01810       -26.84987        -5.08100
*
