# ORCA input file
# SCF done       -198.522405917491          0.000815911537
! CAM-B3LYP def2-SVP def2/J RIJCOSX Grid4 TightSCF
%maxcore 5000
%tddft
    Mode sTDDFT
    Ethresh 5.0
    maxcore 5000
end

%pal
  nprocs 6
  end
* xyz 0 1
   C       -3.83676        -3.88194        -8.70714
   C       -3.76597        -2.79499        -9.53295
   F       -3.87673        -2.94786       -10.85731
   C       -3.57582        -1.50194        -9.00345
   F       -3.50979        -0.45642        -9.83622
   C       -3.45937        -1.31420        -7.65460
   C       -3.52817        -2.41439        -6.77789
   C       -3.72077        -3.72238        -7.31158
   C       -3.79386        -4.84155        -6.45083
   C       -3.67593        -4.65859        -5.09799
   C       -3.47647        -3.34912        -4.57523
   C       -3.40611        -2.24878        -5.38087
   C       -3.36009        -3.42220        -3.11005
   O       -3.22964        -2.48808        -2.34365
   C       -3.41525        -4.85724        -2.77152
   C       -3.71357        -5.60216        -3.98483
   C       -4.05055        -6.92581        -4.06842
   C       -4.19580        -7.79333        -2.96342
   N       -4.36198        -8.53825        -2.10622
   C       -4.35743        -7.58272        -5.28003
   N       -4.61584        -8.16509        -6.23404
   C       -3.10630        -5.39994        -1.55789
   C       -2.79556        -4.76693        -0.33838
   S       -2.85032        -3.04222         0.02848
   C       -2.33009        -3.30571         1.64822
   C       -2.11065        -4.62294         1.90701
   C       -2.37992        -5.46210         0.79002
   C       -2.09323        -6.81859         1.14115
   C       -1.63245        -6.86647         2.42910
   C       -1.64019        -5.46136         3.01788
   O       -1.29355        -5.12602         4.12353
   C       -1.06909        -7.94170         3.16914
   C       -0.16189        -8.92086         2.78485
   N        0.29609        -9.24576         1.49507
   O       -0.29276        -8.78728         0.52909
   O        1.27181        -9.97001         1.41930
   C        0.39824        -9.53526         3.96173
   C       -0.11784        -8.93559         5.06368
   C       -1.08141        -7.95912         4.63978
   C       -1.98904        -7.28289         5.42234
   C       -3.34335        -6.97719         5.05907
   C       -4.03714        -6.67668         6.18719
   C       -3.13405        -6.67773         7.30807
   N       -3.52778        -6.30816         8.60623
   O       -2.68564        -6.30427         9.49058
   O       -4.69818        -6.01609         8.77359
   C       -1.85858        -7.00346         6.86720
   C       -0.64010        -6.88516         7.56649
   C        0.55152        -6.66106         6.94388
   C        1.78289        -6.48634         7.60197
   S        2.02459        -6.61554         9.32522
   C        3.72029        -6.23987         9.21636
   C        4.05881        -6.03083         7.88447
   C        2.99290        -6.17037         6.99454
   O        3.14236        -6.00217         5.65100
   C        4.36167        -5.67248         5.16237
   O        4.51072        -5.50880         3.98949
   C        5.53991        -5.51564         6.14380
   O        6.63205        -5.22892         5.75758
   O        5.31784        -5.71010         7.46558
   C        4.60331        -6.13542        10.31952
   S        6.25097        -5.62605        10.04247
   C        6.58158        -5.70495        11.71601
   C        5.50622        -6.10631        12.45850
   C        4.36688        -6.36279        11.66661
   C        3.06484        -6.81095        12.24518
   C        3.23541        -7.28377        13.69744
   C        1.93453        -7.44282        14.31176
   N        0.90256        -7.54637        14.78854
   C        4.08309        -6.26835        14.49327
   C        4.10566        -6.61501        15.89765
   N        4.15425        -6.91358        16.99861
   C        5.51732        -6.26843        13.94617
   H       -3.98348        -4.86378        -9.12941
   H       -3.31366        -0.31890        -7.26495
   H       -3.93427        -5.81782        -6.88589
   H       -3.25637        -1.26729        -4.95745
   H       -3.05203        -6.48042        -1.49482
   H       -2.20426        -2.47243         2.31268
   H       -2.23736        -7.66696         0.49883
   H        1.10683       -10.34059         3.92028
   H        0.05686        -9.20855         6.08602
   H       -3.74857        -7.10044         4.07275
   H       -5.08577        -6.46229         6.27509
   H       -0.69068        -6.86807         8.64839
   H        0.59062        -6.53813         5.86993
   H        7.55873        -5.45074        12.07676
   H        2.64289        -7.62382        11.64781
   H        2.34457        -5.98549        12.20903
   H        3.74200        -8.25694        13.71587
   H        3.63941        -5.27041        14.39096
   H        6.00470        -7.21393        14.20804
   H        6.09656        -5.46632        14.40825
*
