# ORCA input file
# SCF done       -241.229314273021          0.008014423625
! CAM-B3LYP def2-SVP def2/J RIJCOSX Grid4 TightSCF
%maxcore 5000
%tddft
    Mode sTDDFT
    Ethresh 5.0
    maxcore 5000
end

%pal
  nprocs 6
  end
* xyz 0 1
   C       -4.25935        -4.36301         9.41538
   C       -3.90600        -3.61801        10.51058
   C       -4.75178        -2.48077        10.60634
   O       -4.65055        -1.68860        11.66181
   C       -5.71359        -0.85487        12.08733
   C       -5.61090        -2.47278         9.45963
   C       -5.38996        -3.76708         8.78335
   C       -6.13522        -4.34105         7.77820
   C       -5.76616        -5.46532         6.98467
   C       -6.82035        -5.77804         6.16723
   O       -6.97981        -6.70834         5.24672
   C       -5.85181        -7.47828         4.88086
   C       -7.93170        -4.85967         6.46637
   C       -7.51650        -3.99020         7.39778
   C       -6.16786        -1.43308         8.73869
   C       -6.16182        -0.05493         8.98133
   C       -6.37883         0.88179         7.99668
   C       -6.77534         2.25359         8.19671
   N       -6.84414         2.93790         9.41215
   O       -7.24831         4.08518         9.39949
   O       -6.46749         2.36671        10.43198
   C       -7.14518         2.77726         6.97046
   C       -6.92723         1.80331         5.97116
   C       -6.42243         0.65908         6.55220
   C       -5.93176        -0.52818         5.90945
   C       -4.70803        -1.22904         6.28838
   C       -4.57872        -2.35220         5.54742
   C       -5.72308        -2.41639         4.67511
   N       -6.10901        -3.42531         3.92294
   O       -7.28923        -3.28276         3.22238
   O       -5.58214        -4.51579         3.83838
   C       -6.51295        -1.23911         4.88594
   C       -7.76764        -1.05446         4.12253
   C       -7.66106        -1.93863         2.86957
   C       -8.96202        -2.02112         2.15023
   C       -9.21573        -2.36643         0.82571
   N       -8.27518        -2.73046        -0.13815
   O       -8.67643        -3.06498        -1.24177
   O       -7.08618        -2.67494         0.16254
   C      -10.61892        -2.22361         0.58362
   C      -11.20414        -1.75327         1.72618
   C      -10.19846        -1.61653         2.72466
   C      -10.20702        -1.11202         4.04249
   C       -9.03680        -1.47533         4.91928
   C       -9.26079        -0.67874         6.14337
   C      -10.36161         0.09537         5.96352
   N      -10.79488         1.02372         6.94398
   O      -10.12322         1.12426         7.95047
   O      -11.80670         1.66418         6.72492
   C      -10.96329        -0.15320         4.67095
   C      -12.00667         0.68438         3.98202
   C      -13.37303         0.63242         4.58274
   C      -14.00258         1.77269         4.89692
   C      -13.28317         3.03954         4.81085
   N      -12.05730         3.13711         4.36563
   O      -11.35905         4.12651         4.31043
   O      -11.45042         2.00105         3.83706
   C      -14.09420         4.04884         5.38291
   C      -15.26919         3.48059         5.79324
   C      -15.29098         2.08189         5.50487
   C      -16.36895         1.21816         5.64439
   C      -16.61184         0.06155         4.85003
   C      -17.89323        -0.35709         5.06875
   C      -18.50343         0.48078         6.04492
   N      -19.84604         0.30864         6.36321
   O      -20.38023        -0.74274         6.03845
   O      -20.47177         1.22248         6.90399
   C      -17.55224         1.43751         6.47899
   C      -17.48275         2.25625         7.61805
   C      -18.47811         2.53837         8.52094
   C      -18.29185         3.34484         9.65709
   C      -17.08652         3.68564        10.25364
   C      -17.33083         4.39397        11.45325
   O      -16.27355         4.84129        12.14362
   C      -16.42971         5.50942        13.37404
   C      -18.71865         4.51883        11.64022
   C      -19.35753         3.84988        10.53869
   C      -20.71140         3.63537        10.37442
   C      -21.41698         3.32976         9.18050
   C      -22.72844         3.09088         9.50722
   O      -23.75647         2.75808         8.74759
   C      -23.50559         2.54323         7.36863
   C      -22.88698         3.22849        10.96103
   C      -21.70109         3.58091        11.47312
   C      -19.41331         5.34034        12.61077
   C      -20.43874         6.13455        12.30960
   H       -3.81533        -5.29492         9.12254
   H       -3.13104        -3.83909        11.22019
   H       -5.78905        -0.98872        13.16872
   H       -6.65930        -1.12987        11.61933
   H       -5.48203         0.19511        11.89024
   H       -4.80036        -5.92846         6.99580
   H       -6.20216        -8.19615         4.14239
   H       -5.43647        -8.00347         5.74567
   H       -5.09309        -6.82921         4.43637
   H       -8.89033        -4.93378         5.98869
   H       -8.10929        -3.23439         7.87601
   H       -6.58321        -1.73106         7.78727
   H       -6.02351         0.33419         9.97720
   H       -7.52786         3.76778         6.81251
   H       -7.07432         1.96518         4.92019
   H       -4.01727        -0.86151         7.02287
   H       -3.79186        -3.07879         5.56688
   H       -7.90240        -0.01644         3.81414
   H       -6.88145        -1.55242         2.20398
   H      -11.08811        -2.44570        -0.35491
   H      -12.25443        -1.58346         1.87108
   H       -8.96566        -2.54625         5.12000
   H       -8.64961        -0.69495         7.02323
   H      -12.07034         0.29799         2.95083
   H      -13.78723        -0.35071         4.72489
   H      -13.81312         5.08197         5.45349
   H      -16.09740         4.02821         6.20152
   H      -15.94070        -0.33262         4.11271
   H      -18.40725        -1.16345         4.58071
   H      -16.51095         2.69159         7.80247
   H      -19.46315         2.14061         8.34850
   H      -16.09970         3.43459         9.91572
   H      -15.42415         5.80126        13.67495
   H      -16.85182         4.84653        14.13454
   H      -17.05175         6.40231        13.26921
   H      -21.01677         3.36412         8.18905
   H      -24.41081         2.09850         6.96077
   H      -22.65400         1.87388         7.22501
   H      -23.30198         3.49215         6.86527
   H      -23.81137         3.04819        11.47427
   H      -21.45521         3.70271        12.50876
   H      -19.05284         5.31730        13.63054
   H      -20.81069         6.22464        11.30354
   H      -20.92770         6.72982        13.06111
*
