# ORCA input file
# SCF done       -185.783654281518          0.000783248866
! CAM-B3LYP def2-SVP def2/J RIJCOSX Grid4 TightSCF
%maxcore 5000
%tddft
    Mode sTDDFT
    Ethresh 5.0
    maxcore 5000
end

%pal
  nprocs 6
  end
* xyz 0 1
   C       -0.42692        -2.64310        -5.13843
   S       -1.24078        -3.58600        -3.95004
   C       -0.83432        -2.47404        -2.69128
   C       -0.09483        -1.41730        -3.18850
   C        0.13753        -1.51960        -4.59670
   N        0.84913        -0.55507        -5.25135
   C        1.28064         0.43319        -4.53122
   O        1.97707         1.42427        -5.06829
   C        2.21802         1.34078        -6.47152
   C        2.97013         2.58886        -6.89452
   C        1.03414         0.53150        -3.09081
   O        1.52718         1.59843        -2.47154
   C        1.27213         1.68688        -1.07465
   C        1.91056         2.96327        -0.55817
   N        0.36552        -0.37358        -2.44129
   N       -1.16819        -2.56246        -1.36722
   C       -1.88596        -3.48856        -0.70266
   S       -2.48162        -4.92011        -1.47644
   C       -3.08551        -5.47824         0.05854
   N       -3.74387        -6.70268         0.08618
   O       -4.16844        -7.09932         1.15951
   O       -3.84696        -7.29668        -0.97715
   C       -2.82739        -4.61006         1.08852
   C       -2.15930        -3.44826         0.67538
   C       -1.80374        -2.39576         1.60302
   C       -1.62598        -1.09355         1.33196
   C       -1.22018        -0.08195         2.28752
   C       -1.53536         0.01829         3.58332
   C       -2.49110        -0.86831         4.31547
   C       -0.96361         1.14892         4.41161
   N       -1.96550         2.13691         4.72974
   C       -2.57971         2.24762         5.91857
   C       -3.64415         3.06438         6.16159
   C       -4.22370         3.20957         7.42984
   C       -5.27466         4.04441         7.71825
   C       -5.88621         4.24869         8.97558
   C       -6.89642         5.16426         8.96545
   C       -7.14095         5.73210         7.69627
   S       -6.05375         5.06471         6.51068
   C       -8.08256         6.69605         7.36729
   C       -8.99548         7.33888         8.22364
   C       -9.77885         8.27013         7.60061
   C       -9.52504         8.40210         6.22020
   S       -8.26101         7.30381         5.73503
   C      -10.09735         9.26180         5.29292
   C      -11.11518        10.15474         5.58200
   C      -11.68867        11.08084         4.72517
   C      -13.02518        11.61619         5.03703
   O      -13.64645        11.48513         6.07303
   C      -13.47151        12.30722         3.80566
   C      -14.66855        12.90166         3.53696
   C      -14.88372        13.46696         2.25845
   C      -13.84900        13.39726         1.28269
   C      -14.07273        13.95087         0.00688
   C      -15.26625        14.54972        -0.28519
   C      -16.28663        14.62169         0.68126
   C      -16.10111        14.09181         1.92760
   F      -17.44983        15.21644         0.36827
   F      -15.47607        15.07655        -1.50256
   C      -12.61260        12.78398         1.59667
   C      -12.42466        12.25275         2.84269
   C      -11.26666        11.59768         3.45820
   C       -9.97932        11.67465         2.96962
   C       -8.82561        11.33904         3.70270
   N       -7.84220        11.14003         4.26314
   C       -9.64767        12.21528         1.71433
   N       -9.31838        12.62094         0.69034
   H       -0.41457        -2.96839        -6.15739
   H        1.25761         1.25252        -6.99151
   H        2.79597         0.43284        -6.67797
   H        2.37841         3.47369        -6.67679
   H        3.17341         2.54984        -7.96047
   H        3.91020         2.65989        -6.35447
   H        1.68915         0.80113        -0.57928
   H        0.18702         1.68739        -0.91184
   H        2.97929         2.94797        -0.75151
   H        1.74363         3.05472         0.51133
   H        1.48138         3.82484        -1.06161
   H       -0.73957        -1.82595        -0.81312
   H       -3.13559        -4.80945         2.09904
   H       -1.67644        -2.73856         2.61968
   H       -1.76471        -0.71341         0.32756
   H       -0.58828         0.68995         1.85962
   H       -3.17592        -1.35835         3.62886
   H       -3.07012        -0.28214         5.02861
   H       -1.95399        -1.63352         4.87666
   H       -0.14756         1.63718         3.86910
   H       -0.56822         0.75259         5.35080
   H       -2.37863         2.62320         3.94675
   H       -2.14631         1.66696         6.72272
   H       -4.06317         3.64302         5.34939
   H       -3.81351         2.63202         8.24842
   H       -5.55824         3.71637         9.85120
   H       -7.46663         5.44502         9.83218
   H       -9.05329         7.11091         9.27297
   H      -10.52253         8.85988         8.10456
   H       -9.71937         9.20183         4.28285
   H      -11.60161        10.08857         6.54822
   H      -15.44371        12.94063         4.28716
   H      -13.29944        13.90718        -0.74415
   H      -16.89332        14.15446         2.65721
   H      -11.84874        12.74528         0.83672
*
