# ORCA input file
# SCF done       -163.850685030704          0.000523944404
! CAM-B3LYP def2-SVP def2/J RIJCOSX Grid4 TightSCF
%maxcore 5000
%tddft
    Mode sTDDFT
    Ethresh 5.0
    maxcore 5000
end

%pal
  nprocs 6
  end
* xyz 0 1
   C        0.98187        -2.82096        -0.98914
   N        1.41744        -2.30021        -2.17277
   C        0.47812        -1.46858        -2.70159
   C       -0.59201        -1.45158        -1.83732
   C       -0.25989        -2.31364        -0.75484
   S       -1.63162        -2.30015         0.37495
   O       -1.28775        -1.68051         1.62645
   O       -2.29088        -3.57672         0.43781
   C       -2.58298        -1.14535        -0.65798
   C       -1.87883        -0.81926        -1.76027
   C       -3.85799        -0.77129        -0.16486
   C       -4.71758         0.08563        -0.75415
   N       -5.92473         0.40834        -0.20387
   C       -6.82830         1.28239        -0.70206
   S       -6.53975         2.11375        -2.19509
   C       -8.05462         2.94887        -2.00609
   N       -8.42716         3.84023        -2.99855
   O       -9.50532         4.41324        -2.88070
   O       -7.65391         3.99735        -3.93409
   C       -8.72349         2.60242        -0.85973
   C       -8.04651         1.63792        -0.09094
   C       -8.52382         1.07681         1.13583
   C       -9.60693         1.54008         1.81493
   C      -10.10832         0.98277         3.00381
   C      -11.17358         1.51622         3.68665
   C      -11.77911         1.02839         4.87118
   C      -12.82497         1.77987         5.31617
   C      -13.10376         2.90733         4.51315
   S      -11.99013         2.98170         3.16365
   C      -14.07015         3.87901         4.68178
   C      -15.02622         3.99447         5.71841
   C      -15.81818         5.09360         5.61259
   C      -15.53161         5.90718         4.48271
   S      -14.21784         5.20408         3.54643
   C      -16.15636         7.07745         4.16361
   N      -15.85885         7.83513         3.07797
   C      -16.41240         9.03533         2.80217
   S      -17.50053         9.80861         3.91477
   C      -17.58891        11.19004         2.85906
   N      -18.39651        12.24859         3.25407
   O      -18.45906        13.22554         2.52254
   O      -18.99040        12.12422         4.31758
   C      -16.82689        11.05621         1.72559
   C      -16.15509         9.82786         1.66471
   C      -15.30765         9.34516         0.61875
   C      -14.70149        10.01508        -0.37951
   C      -13.80138         9.27631        -1.21405
   N      -13.00169         9.78635        -2.20581
   C      -12.18900         8.81863        -2.71836
   C      -12.46296         7.64412        -2.05121
   C      -13.48320         7.93813        -1.11771
   S      -13.88602         6.45310        -0.24203
   O      -15.20918         5.98983        -0.57261
   O      -13.65177         6.62311         1.18391
   C      -12.60814         5.50297        -1.11244
   C      -12.00013         6.28136        -2.02507
   C      -12.42383         4.10825        -0.85964
   C      -13.09737         3.44364         0.07632
   H        1.57903        -3.49993        -0.41556
   H        2.30909        -2.50283        -2.59582
   H        0.63617        -0.96133        -3.63182
   H       -2.22173        -0.14848        -2.53173
   H       -4.12184        -1.23351         0.77772
   H       -4.49266         0.56769        -1.69349
   H       -6.15090        -0.02764         0.68256
   H       -9.67154         3.03551        -0.60029
   H       -7.98818         0.22886         1.54266
   H      -10.13408         2.40752         1.44122
   H       -9.64204         0.09317         3.40518
   H      -11.42293         0.13529         5.35378
   H      -13.40067         1.55501         6.19620
   H      -15.09719         3.26944         6.50903
   H      -16.59724         5.35626         6.30576
   H      -16.93968         7.45278         4.80812
   H      -15.14746         7.46697         2.44042
   H      -16.78481        11.81784         0.96917
   H      -15.11034         8.28690         0.66064
   H      -14.81828        11.07606        -0.53865
   H      -13.01095        10.74805        -2.50654
   H      -11.48907         9.03037        -3.50123
   H      -11.21501         5.92059        -2.67132
   H      -11.70547         3.61761        -1.50551
   H      -13.81399         3.94634         0.70285
   H      -12.95630         2.38910         0.23862
*
