# ORCA input file
# SCF done       -174.757362785393          0.000362938552
! CAM-B3LYP def2-SVP def2/J RIJCOSX Grid4 TightSCF
%maxcore 5000
%tddft
    Mode sTDDFT
    Ethresh 5.0
    maxcore 5000
end

%pal
  nprocs 6
  end
* xyz 0 1
   C       -5.71032         3.62439         1.31562
   C       -5.44789         2.32533         1.69667
   C       -4.25524         1.91072         2.31829
   N       -3.30977         1.50132         2.82830
   C       -6.31454         1.22568         1.55145
   N       -6.94728         0.26671         1.48909
   C       -4.80304         4.75436         1.51717
   C       -5.43614         5.93076         1.04879
   C       -4.83843         7.16460         1.10151
   C       -3.54942         7.24371         1.64240
   C       -2.92524         6.06413         2.10567
   C       -3.53173         4.81394         2.05292
   S       -1.33572         6.38566         2.73333
   C       -1.53196         8.07924         2.36876
   C       -2.72313         8.39000         1.80666
  Br       -0.14327         9.27810         2.76539
   C       -6.77627         5.58291         0.52226
   O       -7.58478         6.35983         0.04924
   C       -6.90023         4.12707         0.68937
   C       -7.98798         3.37541         0.27846
   C       -9.15083         3.86885        -0.29158
   C      -10.18667         3.03317        -0.68279
   C      -11.43657         3.39846        -1.22147
   C      -12.26230         2.33959        -1.49103
   C      -11.69364         1.09173        -1.18427
   S      -10.07966         1.29547        -0.54135
   C      -12.22548        -0.18336        -1.31889
   C      -13.50939        -0.58606        -1.73746
   C      -13.68706        -1.93902        -1.72484
   C      -12.55873        -2.67936        -1.29054
   S      -11.25286        -1.57061        -0.91831
   C      -12.48009        -4.05276        -1.27681
   C      -11.44287        -4.91232        -0.87498
   S      -11.42956        -6.49601        -1.62582
   C       -9.96731        -6.95102        -0.80146
   C       -9.54896        -5.92874         0.05309
   C      -10.38070        -4.80268         0.02794
   C      -10.19165        -3.68026         0.99538
   C       -9.39786        -4.14773         2.20998
   C       -8.06827        -4.74198         1.73049
   N       -7.12182        -5.05931         2.78515
   C       -8.34482        -6.02302         0.93531
   C       -9.43327        -8.22651        -1.10946
   C       -8.29758        -8.79368        -0.63263
   C       -7.80870       -10.06066        -1.02986
   S       -8.62088       -11.13894        -2.15093
   C       -7.36121       -12.31031        -2.05534
   C       -6.36113       -11.91725        -1.21646
   C       -6.62475       -10.64175        -0.63462
   S       -5.37299       -10.07661         0.44203
   C       -4.46056       -11.53530         0.12762
   C       -5.09792       -12.43702        -0.77010
   C       -4.34702       -13.55545        -0.98915
   S       -2.86478       -13.51743        -0.11017
   C       -3.22931       -11.95176         0.59307
   C       -2.39259       -11.24896         1.47993
   C       -1.16127       -11.61667         1.94178
   C       -0.35860       -10.85830         2.83942
   C        0.83130       -11.43046         3.14727
   C        1.05146       -12.68055         2.51259
   S       -0.32797       -13.09937         1.50743
   C        2.15074       -13.49510         2.61649
   C        3.32131       -13.27068         3.39700
   C        4.24880       -14.24737         3.30411
   C        3.88512       -15.33121         2.43543
   S        2.28126       -15.01498         1.75284
   C        4.60062       -16.42662         2.14906
   H       -5.34672         8.04347         0.73686
   H       -3.01152         3.94454         2.41824
   H       -3.00998         9.38493         1.51873
   H       -7.93356         2.30139         0.41207
   H       -9.26681         4.93351        -0.43061
   H      -11.69520         4.42906        -1.38807
   H      -13.25244         2.43226        -1.90070
   H      -14.26348         0.12295        -2.02802
   H      -14.60020        -2.43165        -2.00967
   H      -13.32772        -4.55609        -1.72963
   H      -11.16386        -3.28601         1.29772
   H       -9.63460        -2.86883         0.52007
   H       -9.96034        -4.90327         2.76581
   H       -9.21276        -3.29908         2.87115
   H       -7.57963        -4.01076         1.07684
   H       -7.56115        -5.63909         3.49350
   H       -6.79639        -4.21163         3.23558
   H       -8.48493        -6.84669         1.64353
   H       -7.46149        -6.25091         0.33588
   H      -10.00974        -8.79786        -1.82852
   H       -7.67019        -8.29165         0.08610
   H       -7.43789       -13.21366        -2.62591
   H       -4.57047       -14.39763        -1.61189
   H       -2.78684       -10.30032         1.82421
   H       -0.69976        -9.91210         3.22118
   H        1.55933       -10.99472         3.80762
   H        3.42894       -12.38720         4.00104
   H        5.19285       -14.25186         3.81961
   H        5.57163       -16.57789         2.58658
   H        4.23377       -17.18281         1.47967
*
