# ORCA input file
# SCF done       -181.374540371178          0.000278489591
! CAM-B3LYP def2-SVP def2/J RIJCOSX Grid4 TightSCF
%maxcore 5000
%tddft
    Mode sTDDFT
    Ethresh 5.0
    maxcore 5000
end

%pal
  nprocs 6
  end
* xyz 0 1
   C        6.09617        -5.62012        -7.92900
   C        7.07246        -6.44399        -8.41719
   F        8.27364        -5.94387        -8.74172
   C        6.83055        -7.82013        -8.58539
   F        7.80493        -8.60602        -9.06716
   C        5.61380        -8.35550        -8.26195
   C        4.58936        -7.53347        -7.75812
   C        4.83201        -6.13982        -7.58855
   C        3.81469        -5.29327        -7.08929
   C        2.59375        -5.82458        -6.76780
   C        2.36148        -7.22159        -6.93668
   C        3.32178        -8.06176        -7.41801
   C        0.98457        -7.52411        -6.51611
   O        0.42530        -8.61497        -6.50978
   C        0.40977        -6.25390        -6.06974
   C        1.37339        -5.20485        -6.26465
   C        1.16964        -3.85210        -6.08444
   C        2.16148        -2.87206        -6.25181
   N        2.93257        -2.02459        -6.34839
   C       -0.07260        -3.29087        -5.75077
   N       -1.07930        -2.78702        -5.51195
   C       -0.83990        -6.18185        -5.49446
   N       -1.61913        -7.26998        -5.42713
   C       -2.86710        -7.40523        -4.90078
   S       -3.37619        -9.02494        -4.51130
   C       -4.87067        -8.39493        -3.90110
   N       -5.81173        -9.29574        -3.39840
   O       -6.85627        -8.84003        -2.96227
   O       -5.51418       -10.48010        -3.43016
   C       -4.96300        -7.03145        -3.99942
   C       -3.82780        -6.43545        -4.58142
   C       -3.72270        -5.02203        -4.85622
   C       -4.41855        -4.06727        -4.21220
   C       -4.24491        -2.67513        -4.50744
   C       -4.91104        -1.64386        -3.96487
   C       -6.02884        -1.74056        -2.97786
   C       -4.49571        -0.23198        -4.33115
   N       -3.10889         0.00267        -4.00658
   C       -2.11949         0.09483        -4.90906
   C       -0.79593         0.02510        -4.58374
   C        0.29244         0.16906        -5.45943
   C        0.33159         0.55204        -6.77845
   C        1.51543         0.63441        -7.55102
   C        1.34034         1.10612        -8.81559
   C        0.00085         1.43277        -9.12649
   S       -1.03211         1.08372        -7.75754
   C       -0.48175         1.97180       -10.30195
   C        0.26003         2.29562       -11.46290
   C       -0.47036         2.85889       -12.45936
   C       -1.85306         3.01903       -12.15509
   S       -2.17058         2.37608       -10.53903
   C       -2.85530         3.52210       -12.92358
   C       -2.66563         4.21563       -14.17943
   C       -1.60942         5.09973       -14.31885
   C       -1.41616         5.83311       -15.49351
   C       -2.32959         5.68446       -16.52546
   C       -3.42268         4.81468       -16.43559
   C       -3.58615         4.05160       -15.25331
   C       -4.63904         3.10074       -15.17916
   C       -5.51440         2.93856       -16.19955
   C       -5.41791         3.71803       -17.38375
   C       -4.37321         4.66310       -17.51358
   C       -4.31723         5.41502       -18.69825
   C       -5.23799         5.24034       -19.70193
   C       -6.26128         4.30091       -19.56960
   C       -6.34662         3.55305       -18.42461
   C       -0.30079         6.75630       -15.66385
   C        0.72196         6.92655       -14.83445
   H        6.29872        -4.56752        -7.80721
   H        5.44435        -9.41235        -8.39646
   H        4.02780        -4.24300        -6.97180
   H        3.12031        -9.11498        -7.54128
   H       -1.20348        -5.26834        -5.05072
   H       -1.15082        -8.12469        -5.77254
   H       -5.84271        -6.49809        -3.69003
   H       -3.05133        -4.72042        -5.64734
   H       -5.09252        -4.34347        -3.41502
   H       -3.46250        -2.45448        -5.22227
   H       -5.74186        -1.27408        -2.03464
   H       -6.31796        -2.76711        -2.78194
   H       -6.89984        -1.20521        -3.35625
   H       -5.11352         0.48898        -3.78496
   H       -4.62743        -0.05605        -5.40175
   H       -2.83943        -0.22344        -3.05855
   H       -2.43708         0.25276        -5.92834
   H       -0.54676        -0.19590        -3.55353
   H        1.26525        -0.05074        -5.03634
   H        2.46205         0.32897        -7.14210
   H        2.13600         1.23746        -9.52625
   H        1.31512         2.09747       -11.52929
   H       -0.07487         3.12997       -13.42162
   H       -3.86665         3.42828       -12.55387
   H       -0.95535         5.26279       -13.47733
   H       -2.17452         6.26224       -17.42303
   H       -4.72477         2.48642       -14.29613
   H       -6.30771         2.20757       -16.13256
   H       -3.54473         6.15480       -18.83597
   H       -5.17162         5.83498       -20.60140
   H       -6.97887         4.16996       -20.36603
   H       -7.13453         2.82305       -18.30365
   H       -0.33404         7.33718       -16.57789
   H        0.82764         6.37691       -13.91474
   H        1.50524         7.63250       -15.05116
*
