# ORCA input file
# SCF done       -179.738812195166          0.012798924225
! CAM-B3LYP def2-SVP def2/J RIJCOSX Grid4 TightSCF
%maxcore 5000
%tddft
    Mode sTDDFT
    Ethresh 5.0
    maxcore 5000
end

%pal
  nprocs 6
  end
* xyz 0 1
   C      -13.71572         0.00812       -10.57985
   C      -14.01351        -0.32915       -11.87213
   F      -14.86578         0.42375       -12.58678
   C      -13.44165        -1.47075       -12.46650
   F      -13.76420        -1.78823       -13.73258
   C      -12.56887        -2.25380       -11.76304
   C      -12.24822        -1.93633       -10.42791
   C      -12.83810        -0.79083        -9.81929
   C      -12.57376        -0.48521        -8.46176
   C      -11.76225        -1.31266        -7.73267
   C      -11.14929        -2.43304        -8.35999
   C      -11.37090        -2.74498        -9.66931
   C      -10.33776        -3.16388        -7.36347
   O       -9.64428        -4.14026        -7.57714
   C      -10.57378        -2.47443        -6.08125
   C      -11.40599        -1.32381        -6.31239
   C      -11.84215        -0.40288        -5.38521
   C      -12.63382         0.72463        -5.68895
   N      -13.30717         1.64615        -5.82552
   C      -11.61336        -0.43417        -3.99671
   N      -11.51799        -0.36106        -2.85061
   C      -10.10767        -2.92867        -4.86074
   C       -9.29528        -4.04158        -4.67836
   C       -8.94886        -4.51212        -3.42373
   C       -8.12833        -5.61632        -3.10946
   C       -8.00237        -5.86062        -1.76906
   C       -8.72708        -4.96231        -0.96386
   S       -9.55294        -3.77855        -1.95561
   C       -8.88578        -4.93314         0.41219
   C       -8.35060        -5.77038         1.41077
   C       -8.76943        -5.47125         2.67702
   C       -9.65846        -4.37507         2.74621
   S       -9.92820        -3.72842         1.12429
   C      -10.27827        -3.81285         3.83128
   N      -11.07686        -2.73337         3.68119
   C      -11.78910        -2.05610         4.60934
   S      -11.91830        -2.61285         6.24844
   C      -12.91025        -1.23344         6.60924
   N      -13.38332        -1.08958         7.91270
   O      -14.06013        -0.10453         8.16421
   O      -13.08070        -1.96426         8.71187
   C      -13.12057        -0.41083         5.53360
   C      -12.48385        -0.85662         4.35916
   C      -12.48490        -0.18499         3.09374
   C      -13.01613         1.04758         2.89275
   C      -12.98687         1.80743         1.70317
   N      -12.48250         1.42319         0.47450
   C      -12.53294         2.42605        -0.43253
   C      -13.08133         3.53634         0.19127
   C      -13.38079         3.13677         1.52272
   N      -13.91331         4.19591         2.18963
   C      -13.95850         5.26042         1.32867
   C      -13.45888         4.92068         0.08763
   C      -13.30074         5.81724        -1.01537
   C      -12.76878         5.46620        -2.20037
   N      -12.56966         6.36209        -3.22177
   C      -12.00892         6.08571        -4.42382
   S      -11.53457         4.46381        -4.84528
   C      -10.95386         5.04414        -6.38175
   N      -10.40579         4.10277        -7.25048
   O       -9.98658         4.48723        -8.33310
   O      -10.37127         2.93877        -6.86148
   C      -11.12478         6.40187        -6.54165
   C      -11.73353         7.02216        -5.43475
   C      -12.06195         8.43679        -5.31931
   C      -11.67328         9.40376        -6.14722
   H      -14.16407         0.88598       -10.14069
   H      -12.13563        -3.12387       -12.23247
   H      -13.03724         0.38708        -8.02877
   H      -10.89880        -3.60698       -10.11680
   H      -10.41075        -2.39194        -3.96777
   H       -8.92948        -4.57606        -5.54339
   H       -7.65818        -6.20054        -3.88122
   H       -7.41944        -6.66172        -1.35003
   H       -7.67290        -6.57048         1.17066
   H       -8.46530        -6.00357         3.56007
   H      -10.15174        -4.20685         4.82756
   H      -11.14248        -2.37335         2.73325
   H      -13.72108         0.47577         5.61845
   H      -11.99795        -0.68380         2.26570
   H      -13.48479         1.55505         3.72452
   H      -12.14385         0.49892         0.25567
   H      -12.18424         2.26784        -1.43453
   H      -14.22373         4.21021         3.14683
   H      -14.34448         6.20858         1.65495
   H      -13.60704         6.84305        -0.84193
   H      -12.46023         4.45254        -2.41068
   H      -12.83520         7.32526        -3.03907
   H      -10.82140         6.90998        -7.43859
   H      -12.68401         8.71279        -4.46991
   H      -11.04436         9.21445        -7.00495
   H      -11.96933        10.43393        -5.98211
*
