# ORCA input file
# SCF done       -216.474783516336          0.000962321955
! CAM-B3LYP def2-SVP def2/J RIJCOSX Grid4 TightSCF
%maxcore 5000
%tddft
    Mode sTDDFT
    Ethresh 5.0
    maxcore 5000
end

%pal
  nprocs 6
  end
* xyz 0 1
   C        5.05174         4.68380         0.08300
   C        4.71656         6.00499         0.26336
   C        3.97788         6.90707        -0.57884
   O        3.73532         8.06264        -0.33376
   C        3.47233         6.27213        -1.90820
   F        4.49253         5.82881        -2.65985
   F        2.67563         5.21470        -1.67503
   F        2.78187         7.13798        -2.63964
   S        5.31229         6.61924         1.78471
   C        5.99345         5.11064         2.14585
   C        5.78983         4.15227         1.16523
   C        6.27468         2.80597         1.29203
   C        6.09739         1.83743         0.36565
   C        6.56430         0.49839         0.47731
   C        6.90527        -0.34457        -0.57324
   N        6.77987        -0.11020        -1.95384
   O        7.16955        -0.98759        -2.70439
   O        6.29247         0.94434        -2.32976
   C        7.48297        -1.55344        -0.05000
   C        7.54400        -1.45580         1.30233
   C        6.93430        -0.21756         1.70641
   C        6.57757         0.11240         3.00140
   C        5.39105         0.80165         3.40224
   C        5.23475         0.66424         4.75087
   C        6.35685        -0.04409         5.27698
   N        6.56652        -0.23200         6.65571
   O        5.62884         0.00651         7.39735
   O        7.66582        -0.60125         7.03234
   C        7.21610        -0.39454         4.23201
   C        8.47808        -0.99951         4.34082
   C        9.49578        -0.83280         3.43432
   C       10.72066        -1.50804         3.52745
   N       11.81335        -1.24548         2.73403
   C       11.88815        -0.28115         1.66143
   C       11.25088        -0.80886         0.37847
   C       12.90478        -2.06712         3.04769
   O       13.97874        -2.00518         2.48508
   C       12.42155        -2.91092         4.12613
   C       11.09302        -2.55268         4.39332
   C       10.59093        -3.42498         5.44192
   O        9.50374        -3.52149         5.96235
   N       11.69169        -4.23996         5.76655
   C       11.58076        -5.27191         6.77178
   C       11.33393        -6.64480         6.15258
   C       12.78611        -3.96663         4.98816
   C       14.00873        -4.65273         5.07639
   C       15.07623        -4.36544         4.26846
   C       16.30651        -5.05291         4.30551
   C       16.68859        -6.12397         5.09876
   C       18.01007        -6.51117         4.75878
   C       18.44831        -5.58655         3.69492
   C       17.42855        -4.72752         3.43696
   C       19.70078        -5.56919         3.07073
   N       20.72540        -5.53271         2.55251
   C       18.73999        -7.55477         5.28947
   C       20.03288        -7.99147         4.89794
   C       20.40242        -9.07510         5.66776
   C       19.31647        -9.34464         6.60282
   C       18.31510        -8.45519         6.38285
   C       17.10413        -8.40135         7.08014
   N       16.11211        -8.36839         7.65953
   C       21.58884        -9.85652         5.61324
   C       22.56634        -9.66030         4.69678
   C       23.80030       -10.37781         4.56849
   C       24.05615       -11.72556         4.87558
   C       23.13161       -12.75327         5.25149
   O       21.94473       -12.64290         5.46666
   C       23.74949       -14.18158         5.36742
   F       24.24388       -14.62138         4.19735
   F       24.75806       -14.22677         6.25670
   F       22.83827       -15.06296         5.76502
   S       25.71218       -12.14620         4.53028
   C       26.03933       -10.57507         3.97754
   C       24.95852        -9.73265         4.03057
   C       25.01028        -8.33118         3.63881
   C       25.86434        -7.83136         2.75453
   H        4.78906         4.11679        -0.79090
   H        6.51814         4.96903         3.07149
   H        6.82850         2.59733         2.19770
   H        5.63804         2.08111        -0.58252
   H        7.79541        -2.37513        -0.66590
   H        7.86184        -2.22192         1.98228
   H        4.68641         1.24061         2.72330
   H        4.42137         1.02177         5.35362
   H        8.66185        -1.57716         5.24048
   H        9.37309        -0.12156         2.62952
   H       12.95273        -0.09783         1.49200
   H       11.41634         0.65256         1.97864
   H       11.76350        -1.71060         0.05337
   H       11.33476        -0.06281        -0.40653
   H       10.19887        -1.04307         0.52726
   H       10.72874        -4.99436         7.39814
   H       12.48375        -5.27817         7.38710
   H       10.40708        -6.63598         5.58431
   H       11.25179        -7.38922         6.93898
   H       12.14700        -6.92841         5.48800
   H       14.09487        -5.43956         5.81119
   H       14.98577        -3.56962         3.54026
   H       16.09156        -6.61093         5.84339
   H       17.42432        -3.92962         2.71764
   H       20.60742        -7.53549         4.11701
   H       19.32451       -10.13630         7.32894
   H       21.68110       -10.63429         6.35513
   H       22.45210        -8.84449         3.99520
   H       27.03126       -10.32917         3.65195
   H       24.29330        -7.67941         4.11769
   H       26.58153        -8.44413         2.23516
   H       25.85963        -6.78477         2.50611
*
