# ORCA input file
# SCF done       -208.258434187547          0.000790101467
! CAM-B3LYP def2-SVP def2/J RIJCOSX Grid4 TightSCF
%maxcore 5000
%tddft
    Mode sTDDFT
    Ethresh 5.0
    maxcore 5000
end

%pal
  nprocs 6
  end
* xyz 0 1
   C       -5.75143         0.59393         9.00437
   C       -6.31132         0.37267        10.23106
   F       -6.48707         1.38920        11.08461
   C       -6.71114        -0.92391        10.61409
   F       -7.25676        -1.11128        11.82293
   C       -6.54639        -1.98116         9.76398
   C       -5.97369        -1.78526         8.49212
   C       -5.56814        -0.47519         8.10382
   C       -4.99114        -0.25446         6.83301
   C       -4.83169        -1.30965         5.97209
   C       -5.24506        -2.61265         6.36631
   C       -5.79389        -2.85843         7.59200
   C       -4.97159        -3.56650         5.27544
   O       -5.04575        -4.77347         5.33748
   C       -4.46196        -2.74145         4.14330
   C       -4.28741        -1.37742         4.61918
   C       -3.73957        -0.32945         3.93059
   C       -3.61662         0.97911         4.44650
   N       -3.47899         2.05861         4.81094
   C       -3.20485        -0.39758         2.62587
   N       -2.74788        -0.37195         1.57304
   C       -4.15950        -3.23043         2.91483
   C       -4.55212        -4.52997         2.44166
   C       -5.83095        -5.06881         2.73307
   N       -6.84860        -4.43853         3.31429
   S       -8.11360        -5.42262         3.35954
   N       -7.44693        -6.69134         2.63247
   C       -6.18268        -6.40178         2.32393
   C       -5.25696        -7.20022         1.60430
   C       -4.06776        -6.58617         1.22931
   C       -3.72967        -5.29569         1.62867
   C       -5.51123        -8.55689         1.18850
   N       -6.19583        -9.51270         1.88656
   C       -6.64341        -9.46023         3.25837
   C       -5.49238        -9.22705         4.23147
   C       -6.29063       -10.72217         1.15579
   O       -6.83948       -11.71885         1.57511
   C       -5.60770       -10.44034        -0.08342
   C       -5.11215        -9.11644        -0.02142
   C       -4.45919        -8.84035        -1.28278
   O       -3.86964        -7.86548        -1.69876
   N       -4.62203       -10.02561        -2.03549
   C       -4.01153       -10.12121        -3.34032
   C       -2.74249       -10.96933        -3.31774
   C       -5.30596       -10.98813        -1.32841
   C       -5.71468       -12.29647        -1.69641
   C       -5.57520       -12.94388        -2.87882
   C       -6.03937       -14.27001        -3.15116
   C       -5.80811       -14.80663        -4.44735
   N       -5.24281       -14.17454        -5.47374
   S       -5.20592       -15.15933        -6.74041
   N       -5.90317       -16.43887        -6.05598
   C       -6.18971       -16.14888        -4.78736
   C       -6.82311       -16.98106        -3.82693
   C       -7.09940       -16.39266        -2.59450
   C       -6.70673       -15.10384        -2.25837
   C       -7.21953       -18.33012        -4.08515
   C       -6.72605       -19.22792        -4.97604
   C       -7.54918       -20.41977        -5.33296
   O       -8.52803       -20.82391        -4.75088
   C       -6.94256       -20.95143        -6.57035
   C       -7.38131       -21.96275        -7.37543
   C       -6.64624       -22.28204        -8.53927
   C       -5.47168       -21.53707        -8.85096
   C       -4.74968       -21.85375       -10.01933
   C       -5.17009       -22.86536       -10.83623
   C       -6.32913       -23.60424       -10.52465
   C       -7.05297       -23.31944        -9.40088
   F       -6.71743       -24.59125       -11.34349
   F       -4.48159       -23.16525       -11.94548
   C       -5.03701       -20.50066        -7.99352
   C       -5.75756       -20.21767        -6.86412
   C       -5.53403       -19.24863        -5.79578
   C       -4.33549       -18.65401        -5.50614
   C       -4.08450       -17.92759        -4.32494
   N       -3.82006       -17.34882        -3.36951
   C       -3.19428       -18.74374        -6.32826
   N       -2.24639       -18.75808        -6.97555
   H       -5.45039         1.59217         8.72730
   H       -6.85699        -2.96712        10.07239
   H       -4.69165         0.74755         6.57213
   H       -6.09239        -3.85833         7.86807
   H       -3.58803        -2.62949         2.21939
   H       -3.36867        -7.14118         0.62470
   H       -2.76834        -4.89765         1.34027
   H       -7.10527       -10.43377         3.44705
   H       -7.39926        -8.67801         3.36582
   H       -4.70727        -9.96399         4.07574
   H       -5.85647        -9.31876         5.25090
   H       -5.06708        -8.23325         4.10870
   H       -3.75611        -9.09390        -3.61867
   H       -4.73647       -10.50412        -4.06249
   H       -2.00551       -10.51341        -2.66103
   H       -2.32474       -11.02999        -4.31870
   H       -2.94582       -11.97662        -2.96228
   H       -6.21751       -12.79699        -0.87889
   H       -5.08485       -12.48181        -3.72074
   H       -7.60265       -16.99042        -1.84860
   H       -6.92595       -14.74716        -1.26451
   H       -8.07985       -18.67966        -3.52097
   H       -8.27717       -22.51209        -7.12890
   H       -3.85805       -21.30078       -10.27040
   H       -7.93814       -23.89392        -9.17690
   H       -4.14871       -19.94843        -8.25556
*
