# ORCA input file
# SCF done       -240.100605354863          0.000232530274
! CAM-B3LYP def2-SVP def2/J RIJCOSX Grid4 TightSCF
%maxcore 5000
%tddft
    Mode sTDDFT
    Ethresh 5.0
    maxcore 5000
end

%pal
  nprocs 6
  end
* xyz 0 1
   C       -4.54781         2.73148         7.65986
   C       -4.35513         3.14564         8.94776
   F       -4.41946         4.44800         9.25306
   C       -4.08704         2.21205         9.96944
   F       -3.90209         2.64739        11.22273
   C       -4.01532         0.87647         9.68868
   C       -4.20916         0.41821         8.37101
   C       -4.48142         1.36088         7.33721
   C       -4.68351         0.92437         6.00821
   C       -4.61809        -0.41439         5.72231
   C       -4.33847        -1.34649         6.75889
   C       -4.13677        -0.95552         8.05126
   C       -4.29493        -2.71258         6.20052
   O       -4.02377        -3.72314         6.80921
   C       -4.56175        -2.55773         4.74537
   C       -4.79667        -1.14986         4.47443
   C       -5.20392        -0.60395         3.28512
   C       -5.49310        -1.32543         2.10651
   N       -5.77796        -1.83540         1.11816
   C       -5.43307         0.77470         3.08865
   N       -5.62879         1.88324         2.86464
   C       -4.44575        -3.53037         3.79232
   C       -4.36370        -4.93575         3.94386
   C       -3.91591        -5.77903         2.94327
   C       -3.98284        -7.12744         3.39851
   C       -4.56423        -7.07020         4.74811
   C       -4.79054        -5.76738         5.06267
   C       -4.93703        -8.15678         5.55139
   N       -5.29784        -9.01620         6.22166
   C       -3.60678        -8.26217         2.71145
   C       -3.62475        -9.60141         3.17769
   C       -3.28232       -10.45040         2.13927
   C       -2.99818        -9.62906         0.96966
   C       -3.16099        -8.32365         1.30581
   C       -2.93464        -7.24827         0.43901
   N       -2.72449        -6.39570        -0.30132
   C       -3.22507       -11.85990         2.25770
   N       -3.25503       -12.77644         1.23146
   C       -3.41648       -12.51873        -0.17469
   C       -3.23446       -14.09301         1.70621
   O       -3.27331       -15.07287         0.97976
   C       -3.15848       -13.96312         3.14170
   C       -3.15748       -12.58698         3.45147
   C       -3.03384       -12.45199         4.89116
   O       -2.94372       -11.49466         5.62193
   N       -3.00795       -13.78895         5.35787
   C       -2.93094       -14.09103         6.76107
   C       -3.08652       -14.69211         4.33773
   C       -3.13517       -16.09777         4.50598
   C       -3.26943       -16.89790         3.41885
   C       -3.41370       -18.30443         3.40409
   S       -3.12333       -19.31881         4.78784
   C       -3.48885       -20.74255         3.87884
   C       -3.83068       -20.44048         2.58175
   C       -3.79839       -19.05748         2.30641
   C       -4.19823       -18.47866         0.98988
   N       -5.29822       -17.45941         1.13324
   O       -5.60740       -16.88566         0.12442
   O       -5.81774       -17.32639         2.21123
   C       -4.74883       -19.55149         0.03908
   C       -3.93834       -20.83636         0.13944
   C       -4.13901       -21.45974         1.52355
   N       -3.21563       -22.61696         1.65310
   O       -2.03330       -22.39868         1.53974
   O       -3.70824       -23.69955         1.85257
   C       -3.41215       -22.06916         4.48419
   C       -2.27017       -22.76034         4.62677
   C       -1.02074       -22.26377         4.13581
   C        0.13061       -22.94446         3.94058
   C        1.14487       -22.36352         3.00553
   O        1.25760       -21.20329         2.69700
   C        1.91688       -23.52339         2.52108
   C        2.85244       -23.57593         1.52768
   C        3.43527       -24.81947         1.19783
   C        3.03286       -25.99101         1.90390
   C        3.61009       -27.23043         1.56071
   C        4.54366       -27.30339         0.56550
   C        4.94248       -26.14385        -0.13080
   C        4.40137       -24.92761         0.17817
   F        5.85829       -26.24567        -1.10220
   F        5.09018       -28.48093         0.23998
   C        2.06834       -25.90574         2.93315
   C        1.52272       -24.68786         3.24168
   C        0.53898       -24.30318         4.24966
   C        0.23339       -25.01519         5.37503
   C       -0.52714       -24.50077         6.44785
   N       -1.10214       -24.10774         7.35930
   C        0.73235       -26.30928         5.63998
   N        1.10278       -27.36520         5.89195
   H       -4.75340         3.45900         6.89022
   H       -3.80899         0.17455        10.48143
   H       -4.88123         1.66328         5.24884
   H       -3.92664        -1.68557         8.81812
   H       -4.39173        -3.20472         2.75939
   H       -3.53655        -5.46942         1.98844
   H       -5.23359        -5.40680         5.96949
   H       -3.87397        -9.90123         4.17622
   H       -2.66310        -9.98368         0.01457
   H       -4.20860       -11.78980        -0.34573
   H       -3.69056       -13.46707        -0.63934
   H       -2.48384       -12.16990        -0.62328
   H       -2.88307       -13.13766         7.28765
   H       -2.03617       -14.67381         6.98687
   H       -3.81588       -14.63808         7.09096
   H       -3.11130       -16.50985         5.50451
   H       -3.28328       -16.42564         2.44596
   H       -3.36470       -17.94019         0.52404
   H       -4.73406       -19.17092        -0.98178
   H       -5.78814       -19.76872         0.30151
   H       -2.87551       -20.62543         0.00060
   H       -4.25907       -21.53739        -0.63247
   H       -5.15236       -21.86236         1.63757
   H       -4.35167       -22.50637         4.79817
   H       -2.31460       -23.75477         5.04027
   H       -1.01874       -21.25013         3.74969
   H        3.13991       -22.68117         0.99702
   H        3.31857       -28.12682         2.08540
   H        4.71679       -24.05018        -0.36434
   H        1.77312       -26.80860         3.44377
*
