# ORCA input file
# SCF done       -250.692118495255          0.000643804239
! CAM-B3LYP def2-SVP def2/J RIJCOSX Grid4 TightSCF
%maxcore 5000
%tddft
    Mode sTDDFT
    Ethresh 5.0
    maxcore 5000
end

%pal
  nprocs 6
  end
* xyz 0 1
   C      -10.17240         2.32830         4.50027
   C      -11.11387         2.51320         5.47319
   F      -11.50532         3.75024         5.80533
   C      -11.68423         1.40948         6.13949
   F      -12.60394         1.62129         7.09046
   C      -11.30536         0.13543         5.82241
   C      -10.33678        -0.08779         4.82442
   C       -9.75869         1.02683         4.14998
   C       -8.78333         0.82755         3.14697
   C       -8.39709        -0.44826         2.82540
   C       -8.97995        -1.55257         3.50435
   C       -9.92284        -1.39245         4.47871
   C       -8.40770        -2.81263         2.99138
   O       -8.69122        -3.92537         3.37839
   C       -7.40029        -2.41067         1.97426
   C       -7.42530        -0.95660         1.86254
   C       -6.70087        -0.18655         0.99301
   C       -6.79512         1.22083         0.92420
   N       -6.82229         2.36347         0.81867
   C       -5.76678        -0.64642         0.03759
   N       -4.99443        -0.90336        -0.77241
   C       -6.48269        -3.20399         1.35854
   C       -6.33115        -4.62783         1.35793
   C       -7.35136        -5.55807         1.50460
   C       -7.10435        -6.92487         1.45017
   C       -5.82575        -7.42918         1.28077
   C       -4.74970        -6.50894         1.12977
   C       -5.01366        -5.12063         1.10360
   N       -4.01911        -4.26282         0.81770
   C       -2.81607        -4.72241         0.59283
   C       -1.78508        -3.70745         0.20936
   C       -1.19530        -3.04212         1.45596
   C       -2.52484        -6.10928         0.78819
   C       -1.12590        -6.63976         0.71298
   C       -1.01927        -8.08293         1.18762
   N       -3.48474        -6.95434         1.04991
   C       -5.51934        -8.83316         1.14740
   N       -6.00403        -9.84632         1.93137
   C       -6.78673        -9.72527         3.13944
   C       -6.04098        -8.96319         4.22978
   C       -5.45616       -11.09739         1.55597
   O       -5.71243       -12.13815         2.12277
   C       -4.61365       -10.78570         0.42643
   C       -4.66554        -9.38721         0.20709
   C       -3.85213        -9.09520        -0.95460
   O       -3.62144        -8.07364        -1.56235
   N       -3.30414       -10.35000        -1.32139
   C       -2.49458       -10.45085        -2.51273
   C       -3.25076       -11.09354        -3.67190
   C       -3.76460       -11.36345        -0.51213
   C       -3.48342       -12.75283        -0.51614
   C       -2.57838       -13.46341        -1.23537
   C       -2.42564       -14.86756        -1.09072
   S       -3.32447       -15.75935         0.08782
   C       -2.55721       -17.25856        -0.35358
   C       -1.61836       -17.04792        -1.36700
   C       -1.57763       -15.71618        -1.80064
   C       -0.74774       -15.27710        -2.96973
   N       -1.53807       -14.40106        -3.87949
   O       -0.97886       -13.42180        -4.31033
   O       -2.65927       -14.74658        -4.14791
   C       -0.32018       -16.49013        -3.80252
   C        0.33134       -17.51504        -2.88799
   C       -0.71192       -18.09740        -1.92315
   N        0.08547       -18.72486        -0.83074
   O        0.41212       -18.02376         0.09194
   O        0.38900       -19.88484        -0.97462
   C       -3.04757       -18.41669         0.29446
   C       -2.69521       -19.71924         0.11109
   C       -3.36197       -20.76549         0.77720
   C       -3.13488       -22.10913         0.67532
   C       -3.76146       -22.99533         1.69667
   O       -4.64035       -22.69084         2.46968
   C       -3.05268       -24.28348         1.59002
   C       -3.16979       -25.39278         2.37642
   C       -2.34154       -26.50749         2.11779
   C       -1.39798       -26.44120         1.05209
   C       -0.56319       -27.54996         0.80669
   C       -0.66381       -28.67219         1.58010
   C       -1.59955       -28.73737         2.63210
   C       -2.42170       -27.67813         2.89671
   F       -1.67567       -29.85045         3.37412
   F        0.12959       -29.72551         1.34475
   C       -1.30523       -25.27952         0.25129
   C       -2.13077       -24.21717         0.50750
   C       -2.27348       -22.91907        -0.15747
   C       -1.79583       -22.65427        -1.41688
   C       -2.05709       -21.51523        -2.19597
   N       -2.23429       -20.63372        -2.91407
   C       -1.01701       -23.56234        -2.16906
   N       -0.38630       -24.24660        -2.84033
   H       -9.74653         3.18405         4.00004
   H      -11.75079        -0.69894         6.34124
   H       -8.36291         1.69295         2.66143
   H      -10.34539        -2.25133         4.97779
   H       -5.67316        -2.71299         0.83085
   H       -8.36708        -5.22218         1.62526
   H       -7.94274        -7.60231         1.49963
   H       -2.27661        -2.94203        -0.39293
   H       -0.99380        -4.17170        -0.37850
   H       -1.98361        -2.55108         2.02051
   H       -0.45905        -2.29719         1.16638
   H       -0.71300        -3.77273         2.10188
   H       -0.46435        -6.00043         1.30276
   H       -0.80235        -6.57412        -0.33055
   H       -1.35506        -8.16911         2.21797
   H        0.01131        -8.42376         1.12242
   H       -1.64522        -8.72415         0.57442
   H       -6.97745       -10.75272         3.46396
   H       -7.74417        -9.24438         2.92683
   H       -5.08961        -9.44549         4.44108
   H       -6.63563        -8.95176         5.13868
   H       -5.85241        -7.93620         3.92541
   H       -1.57000       -10.99043        -2.29106
   H       -2.23266        -9.42171        -2.77633
   H       -3.65219       -12.06558        -3.39401
   H       -2.57993       -11.22393        -4.51620
   H       -4.07751       -10.45610        -3.97462
   H       -4.09514       -13.29297         0.19825
   H       -1.91815       -12.97006        -1.92983
   H        0.12707       -14.69466        -2.65691
   H        0.38064       -16.17900        -4.57847
   H       -1.20173       -16.92714        -4.27756
   H        1.12790       -17.03015        -2.31612
   H        0.76933       -18.32315        -3.47420
   H       -1.28024       -18.89892        -2.42177
   H       -3.85111       -18.21905         0.99485
   H       -1.89494       -19.99855        -0.54506
   H       -4.11411       -20.49031         1.51001
   H       -3.88181       -25.41741         3.18724
   H        0.15633       -27.51805         0.00348
   H       -3.13209       -27.74284         3.70599
   H       -0.57166       -25.25815        -0.53806
*
