# ORCA input file
# SCF done       -231.557266938453          0.000641948008
! CAM-B3LYP def2-SVP def2/J RIJCOSX Grid4 TightSCF
%maxcore 5000
%tddft
    Mode sTDDFT
    Ethresh 5.0
    maxcore 5000
end

%pal
  nprocs 6
  end
* xyz 0 1
   C       -8.97213         2.57856         3.44629
   C      -10.30568         2.73122         3.70359
   F      -10.85358         3.95202         3.71377
   C      -11.12049         1.60939         3.96053
   F      -12.42361         1.78944         4.20764
   C      -10.58941         0.35005         3.95781
   C       -9.21851         0.16007         3.69625
   C       -8.39359         1.29322         3.43558
   C       -7.01572         1.12658         3.16876
   C       -6.47810        -0.13422         3.16568
   C       -7.31012        -1.25992         3.42468
   C       -8.64488        -1.13025         3.68267
   C       -6.51116        -2.49544         3.33842
   O       -6.91380        -3.63282         3.44003
   C       -5.13084        -2.05325         2.99643
   C       -5.11667        -0.60280         2.92931
   C       -4.01277         0.18740         2.75367
   C       -2.69451        -0.29780         2.61088
   N       -1.59884        -0.62406         2.50994
   C       -4.04812         1.59813         2.72577
   N       -4.02137         2.74463         2.69162
   C       -4.14228        -2.91212         2.62646
   C       -4.17018        -4.32292         2.81469
   C       -3.65351        -5.25511         1.94574
   C       -3.89868        -6.56411         2.46553
   C       -4.56406        -6.36998         3.76241
   C       -4.73383        -5.03604         3.95778
   C       -5.02198        -7.36798         4.63358
   N       -5.43852        -8.15409         5.35893
   C       -3.60281        -7.76762         1.86516
   C       -3.74270        -9.06790         2.42019
   C       -3.43431       -10.01007         1.45353
   C       -3.06896        -9.29742         0.23803
   C       -3.13199        -7.96224         0.48218
   C       -2.83589        -6.96692        -0.45678
   N       -2.58602        -6.17899        -1.25398
   C       -3.47037       -11.40758         1.67727
   N       -3.55436       -12.39238         0.73134
   C       -3.68278       -12.24183        -0.69354
   C       -3.60709       -13.67849         1.31215
   O       -3.71770       -14.69444         0.66375
   C       -3.50921       -13.43130         2.73732
   C       -3.44004       -12.04139         2.93069
   C       -3.26527       -11.78828         4.35180
   O       -3.12594       -10.77098         4.98901
   N       -3.26348       -13.07552         4.92551
   C       -3.12713       -13.26410         6.34454
   C       -3.40707       -14.06576         3.98911
   C       -3.42563       -15.43755         4.30018
   C       -3.62182       -16.39336         3.34210
   C       -3.64104       -17.78768         3.56756
   C       -3.89472       -18.65628         2.46609
   C       -3.85381       -20.08377         2.58888
   N       -4.11220       -20.85763         1.52027
   C       -4.37318       -20.28973         0.37086
   C       -4.39165       -18.86065         0.24314
   N       -4.17172       -18.09620         1.28167
   C       -4.68025       -18.26107        -1.00983
   N       -4.92103       -17.82078        -2.03882
   C       -4.66478       -21.10251        -0.75542
   N       -4.90420       -21.72183        -1.68795
   C       -3.49586       -20.72130         3.80296
   C       -3.31236       -19.86887         4.91248
   C       -3.39596       -18.42945         4.80453
   N       -3.19384       -17.84129         5.98438
   S       -2.94055       -18.96148         7.10406
   N       -3.06656       -20.25588         6.16611
   C       -3.39485       -22.13898         3.84466
   C       -2.68782       -22.93725         4.68894
   C       -3.06170       -24.37869         4.80574
   O       -3.80716       -24.99296         4.08206
   C       -2.37145       -24.85814         6.02025
   C       -2.46175       -26.07442         6.63331
   C       -1.71157       -26.30894         7.80766
   C       -0.88567       -25.27050         8.32882
   C       -0.14311       -25.50959         9.50264
   C       -0.21417       -26.72290        10.12762
   C       -1.03023       -27.74958         9.61066
   C       -1.76381       -27.54815         8.47500
   F       -1.08125       -28.92770        10.24491
   F        0.49335       -26.94816        11.24164
   C       -0.80975       -24.02216         7.66990
   C       -1.53696       -23.82092         6.52709
   C       -1.62266       -22.67341         5.62897
   C       -0.71283       -21.65034         5.56431
   C       -0.67834       -20.69175         4.53345
   N       -0.60088       -19.89214         3.71277
   C        0.32272       -21.45419         6.49999
   N        1.15776       -21.21840         7.25155
   H       -8.36328         3.44777         3.25227
   H      -11.22589        -0.49813         4.15574
   H       -6.42017         2.00232         2.96745
   H       -9.25328        -2.00123         3.87350
   H       -3.27783        -2.52750         2.09844
   H       -3.17523        -5.04497         1.00876
   H       -5.16180        -4.57236         4.82500
   H       -4.03215        -9.27661         3.43115
   H       -2.75357        -9.74292        -0.68514
   H       -4.43343       -11.49014        -0.93805
   H       -3.99460       -13.21063        -1.08689
   H       -2.72698       -11.97734        -1.15028
   H       -3.04172       -12.27208         6.78847
   H       -2.23114       -13.84209         6.57719
   H       -4.00261       -13.76853         6.75645
   H       -3.28292       -15.73585         5.32845
   H       -3.77812       -16.09768         2.31227
   H       -4.00271       -22.66126         3.11118
   H       -3.09469       -26.84849         6.22688
   H        0.48955       -24.73632         9.90965
   H       -2.38304       -28.34410         8.09200
   H       -0.18252       -23.25216         8.08993
*
