# ORCA input file
# SCF done       -177.909070419575          0.000657456860
! CAM-B3LYP def2-SVP def2/J RIJCOSX Grid4 TightSCF
%maxcore 5000
%tddft
    Mode sTDDFT
    Ethresh 5.0
    maxcore 5000
end

%pal
  nprocs 6
  end
* xyz 0 1
   C        3.43565        -2.39858        -1.11778
   O        3.81448        -1.13280        -1.27223
   C        4.85026        -0.90129        -0.42486
   C        5.13237        -2.04674         0.28489
   C        4.20934        -3.02499        -0.16795
   C        4.11024        -4.35759         0.26576
   N        4.04297        -5.44111         0.63159
   C        5.47835         0.37944        -0.38162
   C        5.12152         1.41179        -1.17498
   C        5.74149         2.69209        -1.14915
   S        6.91353         3.10874         0.06240
   C        7.11174         4.70574        -0.59337
   C        6.27423         4.89856        -1.68645
   C        5.52490         3.75927        -2.01233
   C        4.65787         3.69612        -3.23334
   N        4.95300         2.45517        -4.00748
   O        6.11176         2.20318        -4.21854
   O        4.00830         1.81460        -4.39561
   C        4.96645         4.87336        -4.16666
   C        4.95167         6.17559        -3.37900
   C        6.12214         6.20878        -2.38691
   N        5.79874         7.31609        -1.42334
   O        5.47007         7.01919        -0.30280
   O        5.83559         8.42888        -1.87533
   C        8.03914         5.64204        -0.09285
   C        8.75679         5.53076         1.05618
   C        9.66452         6.54724         1.43019
   N       10.39320         6.55964         2.59296
   C       10.40755         5.53607         3.60946
   C       11.27974         4.34979         3.20598
   C       11.20489         7.70401         2.69526
   O       11.92962         7.92507         3.64485
   C       10.93393         8.44620         1.48262
   C        9.98789         7.71611         0.73076
   C        9.72709         8.44864        -0.48936
   O        9.00295         8.20346        -1.44074
   N       10.53784         9.58067        -0.39925
   C       10.50791        10.60790        -1.41393
   C        9.66205        11.80309        -0.98379
   C       11.26922         9.60497         0.77026
   C       12.18988        10.61777         1.09634
   C       12.89633        10.62732         2.26668
   C       13.85395        11.60670         2.60504
   C       14.29956        12.69076         1.86807
   C       15.29085        13.38604         2.60553
   C       15.43789        12.65966         3.88280
   C       14.58341        11.60557         3.86674
   C       16.30955        12.96541         4.93519
   N       17.00969        13.16898         5.82216
   C       15.99657        14.50371         2.20746
   C       16.98428        15.22108         2.93709
   C       17.45070        16.25461         2.15305
   C       16.75374        16.21545         0.88070
   C       15.87545        15.17744         0.90202
   C       15.02701        14.83195        -0.15364
   N       14.34240        14.57702        -1.04160
   C       18.43863        17.22439         2.46609
   O       18.80361        18.12678         1.53270
   C       19.75046        18.93161         2.06514
   C       20.00831        18.55547         3.36495
   C       19.16795        17.45404         3.63619
   C       19.09026        16.76332         4.85353
   N       19.05675        16.23584         5.87112
   C       20.33016        19.99205         1.28644
   C       20.00004        20.25630         0.02394
   H        2.62185        -2.76022        -1.71545
   H        5.89294        -2.17913         1.02638
   H        6.28834         0.48202         0.32606
   H        4.30779         1.26492        -1.87160
   H        3.59177         3.66294        -2.98119
   H        4.22727         4.91129        -4.96810
   H        5.95477         4.72253        -4.60825
   H        4.00856         6.25052        -2.83014
   H        5.02160         7.03000        -4.05200
   H        7.04850         6.51281        -2.88739
   H        8.19493         6.52090        -0.70379
   H        8.62238         4.67510         1.70222
   H        9.38309         5.21482         3.81620
   H       10.81938         6.00516         4.50731
   H       10.91604         3.89180         2.28876
   H       11.27493         3.60425         3.99614
   H       12.30325         4.67975         3.04619
   H       10.06444        10.14474        -2.29947
   H       11.52902        10.91763        -1.65186
   H        8.63578        11.48866        -0.80999
   H        9.66783        12.55621        -1.76651
   H       10.04997        12.24663        -0.06950
   H       12.34279        11.41051         0.37886
   H       12.72858         9.83854         2.98820
   H       13.96474        12.97587         0.89114
   H       14.44796        10.87429         4.64196
   H       17.30594        14.98690         3.93280
   H       16.91931        16.90456         0.07384
   H       20.70638        19.00521         4.04115
   H       21.07397        20.57758         1.80764
   H       19.25954        19.67226        -0.49554
   H       20.45985        21.06030        -0.52217
*
