# ORCA input file
# SCF done       -161.925691809129          0.000536608973
! CAM-B3LYP def2-SVP def2/J RIJCOSX Grid4 TightSCF
%maxcore 5000
%tddft
    Mode sTDDFT
    Ethresh 5.0
    maxcore 5000
end

%pal
  nprocs 6
  end
* xyz 0 1
   C       -2.46043         2.55759         2.13998
   N       -1.56815         3.22252         1.42526
   C       -1.38391         2.80353         0.18093
   C       -2.08041         1.73240        -0.34854
   C       -3.00267         1.09678         0.49377
   N       -3.18013         1.53028         1.74909
   C       -3.78149        -0.03291         0.04278
   C       -4.67039        -0.65117         0.84652
   C       -5.47681        -1.76561         0.48864
   C       -5.53703        -2.46368        -0.70580
   C       -6.46667        -3.50053        -0.66349
   C       -7.12475        -3.59726         0.57826
   S       -6.59279        -2.41349         1.68337
   C       -8.05237        -4.66448         0.52105
   C       -7.98266        -5.24639        -0.76158
   C       -6.97556        -4.54298        -1.54129
   C       -6.57408        -4.81072        -2.81665
   C       -7.10813        -5.87230        -3.57867
   N       -7.51933        -6.73490        -4.21138
   C       -5.57666        -4.04749        -3.45940
   N       -4.76518        -3.42668        -3.98017
   C       -8.87634        -6.29684        -0.92721
   C       -9.62674        -6.53197         0.21827
   S       -9.19979        -5.43075         1.52450
   C      -10.64465        -7.50070         0.44058
   C      -11.16832        -8.36692        -0.55096
   C      -12.20594        -9.32412        -0.26879
   N      -12.63169       -10.13890        -1.25823
   C      -12.12671       -10.03555        -2.44267
   C      -11.13346        -9.06322        -2.73095
   N      -10.68385        -8.27819        -1.80879
   F      -10.63700        -8.93052        -3.95488
   F      -12.56263       -10.87016        -3.37835
   C      -12.78785        -9.45769         1.01662
   C      -12.25220        -8.60367         2.00510
   C      -11.21695        -7.64698         1.72288
   N      -10.88426        -6.94786         2.80877
   S      -11.77315        -7.43883         4.05272
   N      -12.62670        -8.55959         3.28421
   C      -13.83360       -10.36505         1.34290
   C      -14.57871       -11.17874         0.49813
   C      -15.52043       -11.92842         1.19066
   C      -15.49305       -11.69723         2.58100
   S      -14.32627       -10.53573         3.02518
   C      -16.47429       -12.51846         3.19229
   C      -17.12178       -13.26570         2.18865
   C      -16.55367       -12.91211         0.89953
   C      -16.92657       -13.38643        -0.32342
   C      -17.95179       -14.34432        -0.47421
   N      -18.78266       -15.12345        -0.60637
   C      -16.33333       -12.94472        -1.52566
   N      -15.87587       -12.58945        -2.51486
   C      -18.10729       -14.11111         2.70120
   C      -18.19915       -14.00410         4.07126
   S      -17.07599       -12.85838         4.75368
   C      -19.08907       -14.71424         4.95318
   N      -18.98174       -14.44338         6.25597
   C      -19.79646       -15.09586         7.06443
   C      -20.72081       -16.01613         6.59925
   C      -20.76065       -16.23303         5.21554
   N      -19.93733       -15.57449         4.40395
   C      -21.69786       -17.17927         4.62429
   C      -21.76446       -17.41238         3.31904
   H       -2.61543         2.89680         3.15683
   H       -0.65222         3.35122        -0.39953
   H       -1.92427         1.39781        -1.36155
   H       -3.61512        -0.35802        -0.97377
   H       -4.78500        -0.26799         1.85167
   H       -4.93111        -2.22115        -1.55892
   H       -9.00120        -6.87770        -1.82119
   H      -14.41812       -11.20139        -0.56292
   H      -18.73273       -14.77531         2.13449
   H      -19.69766       -14.86691         8.11805
   H      -21.38083       -16.54282         7.26895
   H      -22.34774       -17.68934         5.32265
   H      -21.11016       -16.89536         2.63841
   H      -22.46404       -18.11490         2.90039
*
