# ORCA input file
# SCF done       -294.622138729495          0.001051664458
! CAM-B3LYP def2-SVP def2/J RIJCOSX Grid4 TightSCF
%maxcore 5000
%tddft
    Mode sTDDFT
    Ethresh 5.0
    maxcore 5000
end

%pal
  nprocs 6
  end
* xyz 0 1
   C      -16.93187       -13.45474        -3.91211
   C      -16.00350       -14.00298        -3.04259
   C      -15.00809       -14.86206        -3.50051
   C      -14.90409       -15.17995        -4.84938
   C      -15.83310       -14.63395        -5.71368
   C      -16.85359       -13.77562        -5.26132
   C      -17.69144       -13.37690        -6.38701
   C      -18.77666       -12.55363        -6.33610
   C      -19.25965       -11.93727        -5.15889
   N      -19.69910       -11.40555        -4.24273
   C      -19.56816       -12.20114        -7.45342
   N      -20.25068       -11.87696        -8.31601
   C      -17.15336       -14.02877        -7.58273
   C      -17.56978       -13.99558        -8.85027
   C      -15.95420       -14.83019        -7.17185
   O      -15.25220       -15.48846        -7.89710
   C      -14.00475       -15.42578        -2.51852
   F       -9.95301       -16.68682        -4.51965
   F      -14.60428       -15.65112        -1.30735
   F      -13.57011       -16.64817        -2.92239
   C      -12.83608       -14.49969        -2.34882
   C      -11.55127       -14.73784        -2.70407
   C      -10.67547       -13.66357        -2.38591
   C       -9.28283       -13.56220        -2.62257
   C       -8.49324       -14.60929        -3.21250
   C       -7.28093       -14.50635        -3.84420
   C       -6.67165       -15.76027        -4.09754
   C       -7.39000       -16.84303        -3.66163
   S       -8.88307       -16.31907        -2.98695
   C       -7.05785       -18.28834        -3.74106
  Cl       -5.14225       -15.87947        -4.84710
   C       -8.67329       -12.37132        -2.20423
   C       -9.38433       -11.30550        -1.60028
   C      -10.78103       -11.38834        -1.40718
   C      -11.37681       -12.59063        -1.78655
   S      -13.07737       -12.93941        -1.63107
   C      -11.55327       -10.29722        -0.86659
   C      -12.64590       -10.35035        -0.04137
   C      -13.17856        -9.07703         0.23302
   C      -12.52595        -8.04233        -0.38220
   S      -11.20615        -8.64513        -1.30958
   C      -12.83215        -6.59305        -0.31545
  Cl      -14.54146        -8.83383         1.25481
   C       -8.52239       -10.27079        -1.17499
   C       -7.19594       -10.52381        -1.42506
   S       -6.96123       -12.04199        -2.24067
   C       -6.09012        -9.66946        -1.14321
   C       -4.77783       -10.04423        -1.49136
   C       -3.65725        -9.17390        -1.31194
   N       -2.43478        -9.58183        -1.69773
   C       -2.29067       -10.75393        -2.23408
   C       -3.39962       -11.62059        -2.40190
   N       -4.58761       -11.26487        -2.02995
   F       -3.25029       -12.83223        -2.92465
   F       -1.07050       -11.11969        -2.60911
   C       -3.78983        -7.87355        -0.77455
   C       -5.09731        -7.50494        -0.38182
   C       -6.22801        -8.39380        -0.55352
   N       -7.35648        -7.84476        -0.10003
   S       -7.04125        -6.37773         0.47949
   N       -5.46395        -6.35178         0.17948
   C       -2.67128        -7.00387        -0.68055
   C       -2.69468        -5.66748        -0.34281
   C       -1.43420        -5.05223        -0.38165
   C       -1.12474        -3.69823        -0.08768
   C       -2.14567        -2.70804         0.14733
   C       -2.10616        -1.63046         0.99172
   C       -3.26450        -0.83310         0.91177
   C       -4.19310        -1.26720         0.00469
   S       -3.63825        -2.70982        -0.76088
   C       -5.49903        -0.66047        -0.34723
  Cl       -3.49121         0.57306         1.87613
   C        0.22370        -3.37207        -0.08630
   C        1.25805        -4.30032        -0.38012
   C        0.94660        -5.64327        -0.69207
   C       -0.40575        -5.97104        -0.71087
   S       -1.06193        -7.55390        -1.05551
   C        1.95999        -6.64212        -0.94041
   C        1.90651        -7.71874        -1.78283
   C        3.05507        -8.53182        -1.70484
   C        3.98959        -8.10728        -0.80120
   S        3.45253        -6.65622        -0.03306
   C        5.29377        -8.72460        -0.45495
  Cl        3.24778        -9.94228        -2.66884
   C        2.53203        -3.66018        -0.42050
   C        2.47213        -2.36473        -0.04974
   S        0.89816        -1.78505         0.24649
   C       -1.15554        -6.63479        -4.50003
   C       -2.58785        -6.61737        -4.03961
   C       -3.38827        -7.73152        -4.26466
   C       -4.71748        -7.65560        -3.89613
   C       -5.25637        -6.48915        -3.31911
   C       -4.44155        -5.38776        -3.09813
   C       -3.10712        -5.46225        -3.46138
   C       -6.67866        -6.68589        -3.06791
   C       -7.52748        -5.76807        -2.51491
   C       -7.14606        -4.47726        -2.08681
   N       -6.91824        -3.41599        -1.71447
   C       -8.90541        -5.97424        -2.28967
   N      -10.02937        -6.04586        -2.07071
   C       -7.02628        -8.02477        -3.53434
   C       -8.20860        -8.65227        -3.56464
   C       -5.77793        -8.67370        -4.04097
   O       -5.67404        -9.79364        -4.48187
   F       -1.05544        -6.27183        -5.79305
   F       -0.59161        -7.84342        -4.40421
   F       -0.37487        -5.78660        -3.81450
   H      -17.69740       -12.79997        -3.52987
   H      -16.05853       -13.77403        -1.98907
   H      -14.13482       -15.84313        -5.21440
   H      -18.42570       -13.43991        -9.18999
   H      -17.01878       -14.56024        -9.58621
   H      -11.26600       -15.64710        -3.19388
   H       -6.83491       -13.58428        -4.16529
   H       -6.07352       -18.41487        -4.18407
   H       -7.79089       -18.80788        -4.35816
   H       -7.06394       -18.74674        -2.75280
   H      -13.03236       -11.25126         0.39720
   H      -13.82152        -6.39729        -0.72827
   H      -12.09287        -6.02797        -0.87483
   H      -12.83409        -6.25751         0.72131
   H       -8.83894        -9.39164        -0.64780
   H       -3.60576        -5.18076        -0.05104
   H       -1.30366        -1.43035         1.67668
   H       -5.92473        -0.16737         0.52439
   H       -6.18465        -1.42021        -0.71265
   H       -5.36985         0.08912        -1.12950
   H        1.10345        -7.91911        -2.46556
   H        5.51302        -9.52912        -1.15226
   H        5.26827        -9.13327         0.55556
   H        6.09211        -7.98546        -0.49636
   H        3.43971        -4.15619        -0.70708
   H       -2.99195        -8.62613        -4.72035
   H       -4.81875        -4.48131        -2.65655
   H       -2.46334        -4.61161        -3.29851
   H       -9.12840        -8.21789        -3.21800
   H       -8.25482        -9.63741        -3.99917
*
