# ORCA input file
# SCF done       -261.677666320095          0.000816268249
! CAM-B3LYP def2-SVP def2/J RIJCOSX Grid4 TightSCF
%maxcore 5000
%tddft
    Mode sTDDFT
    Ethresh 5.0
    maxcore 5000
end

%pal
  nprocs 6
  end
* xyz 0 1
   C      -12.53156         1.31804         4.91207
   C      -12.82164         1.63746         6.20881
   F      -13.40569         2.80750         6.50011
   C      -12.51183         0.74441         7.25403
   F      -12.80648         1.08466         8.51649
   C      -11.91740        -0.45715         6.98798
   C      -11.60668        -0.81544         5.66189
   C      -11.91731         0.08733         4.60412
   C      -11.61229        -0.24876         3.26521
   C      -11.01560        -1.45160         2.99124
   C      -10.71434        -2.34728         4.05406
   C      -10.99447        -2.05119         5.35647
   C      -10.09059        -3.56467         3.50196
   O       -9.70148        -4.52144         4.14196
   C      -10.04007        -3.36944         2.04301
   C      -10.59021        -2.06199         1.73332
   C      -10.69601        -1.47243         0.49973
   C      -10.28406        -2.03069        -0.72846
   N       -9.97795        -2.40101        -1.77232
   C      -11.23734        -0.18744         0.28334
   N      -11.66301         0.84980         0.03620
   C       -9.56992        -4.26898         1.12445
   C       -9.03812        -5.56165         1.29367
   C       -8.64767        -6.32666         0.20645
   C       -8.16742        -7.59976         0.53914
   C       -7.67562        -8.60934        -0.32886
   C       -7.66182        -8.46995        -1.76674
   C       -6.72801        -8.94702        -2.64806
   C       -7.03817        -8.67813        -3.99351
   C       -8.21479        -8.01218        -4.15863
   S       -8.96192        -7.68923        -2.63092
   C       -8.85786        -7.56340        -5.41975
   C       -7.22261        -9.77058         0.28459
   C       -7.23921        -9.96959         1.69004
   C       -7.69091        -8.95016         2.55269
   C       -8.17090        -7.79305         1.94821
   S       -8.79336        -6.41196         2.80238
   C       -7.63297        -9.10657         3.99008
   C       -6.62422        -9.65640         4.73364
   C       -6.87433        -9.62689         6.11863
   C       -8.07307        -9.06589         6.43936
   S       -8.91950        -8.54602         5.02043
   C       -8.66793        -8.85949         7.78530
   C       -6.83947       -11.27753         2.04035
   C       -6.50619       -12.05592         0.96632
   S       -6.65612       -11.19713        -0.54902
   C       -6.09514       -13.41694         1.01895
   C       -5.72313       -14.26468        -0.00329
   F       -5.67500       -13.89035        -1.28628
   C       -5.39882       -15.56235         0.42531
   F       -5.02251       -16.53092        -0.41874
   C       -5.51517       -15.74500         1.78767
   S       -6.02899       -14.26424         2.53586
   C       -5.29627       -16.92045         2.56223
   C       -4.85805       -18.14688         2.14592
   C       -4.77493       -19.09852         3.18997
   C       -4.36065       -20.44519         3.09643
   C       -4.09430       -21.06186         1.81523
   C       -4.79431       -20.92285         0.64841
   C       -4.26646       -21.68420        -0.41188
   C       -3.16079       -22.40005        -0.06804
   S       -2.75324       -22.15415         1.59831
   C       -2.34200       -23.30408        -0.91602
   C       -4.24575       -21.13606         4.29708
   C       -4.55144       -20.55853         5.55883
   C       -5.07578       -19.24657         5.64393
   C       -5.14808       -18.54933         4.44271
   S       -5.63677       -16.88458         4.27783
   C       -5.61087       -18.69149         6.86661
   C       -6.73019       -17.90923         6.98487
   C       -7.05484       -17.58111         8.31300
   C       -6.18667       -18.09096         9.22945
   S       -4.93450       -18.99585         8.44648
   C       -6.24198       -18.01578        10.70912
   C       -4.37534       -21.47742         6.60534
   C       -4.01117       -22.73816         6.19959
   S       -3.79019       -22.80696         4.46132
   C       -3.76224       -23.88024         6.99157
   C       -4.02163       -24.08800         8.31570
   C       -3.28385       -25.17957         9.01100
   O       -2.67664       -26.08822         8.49472
   C       -3.40538       -24.87492        10.45207
   C       -2.81553       -25.49688        11.51393
   C       -3.04864       -25.00108        12.81675
   C       -3.88596       -23.86128        12.99116
   C       -4.10548       -23.36460        14.29165
   C       -3.52551       -23.97368        15.36869
   C       -2.70093       -25.10321        15.19564
   C       -2.46636       -25.60706        13.94690
   F       -2.14570       -25.68032        16.26998
   F       -3.73658       -23.49986        16.60409
   C       -4.49171       -23.24475        11.87251
   C       -4.26116       -23.74984        10.62116
   C       -4.77796       -23.35935         9.31066
   C       -5.91905       -22.62151         9.11673
   C       -6.58049       -22.51175         7.87633
   N       -7.17390       -22.42142         6.89831
   C       -6.58013       -21.90855        10.13358
   N       -7.12472       -21.25954        10.91021
   H      -12.77473         2.01322         4.12372
   H      -11.68705        -1.12999         7.79915
   H      -11.86136         0.45755         2.49029
   H      -10.75313        -2.75115         6.14190
   H       -9.61379        -3.96984         0.08408
   H       -8.71046        -5.94708        -0.79724
   H       -5.82276        -9.43888        -2.34174
   H       -6.40857        -8.97165        -4.81441
   H       -8.25202        -7.86107        -6.27204
   H       -8.97032        -6.47938        -5.42843
   H       -9.85090        -8.00012        -5.52306
   H       -5.71000       -10.02619         4.30445
   H       -6.18552       -10.00718         6.85205
   H       -8.03657        -9.31162         8.54638
   H       -9.66157        -9.30248         7.83976
   H       -8.76699        -7.79510         7.99803
   H       -6.83067       -11.65292         3.04757
   H       -4.57432       -18.35627         1.13186
   H       -5.68675       -20.32922         0.56384
   H       -4.69497       -21.69979        -1.39815
   H       -2.38542       -24.32604        -0.53959
   H       -1.29770       -22.99375        -0.91372
   H       -2.71166       -23.29108        -1.93841
   H       -7.33766       -17.62014         6.14691
   H       -7.91294       -16.99196         8.58246
   H       -6.90640       -17.21315        11.01937
   H       -5.25224       -17.84883        11.13039
   H       -6.62460       -18.95843        11.10855
   H       -4.45812       -21.21068         7.64015
   H       -3.22121       -24.68664         6.50588
   H       -2.17880       -26.35518        11.36301
   H       -4.73728       -22.50320        14.44228
   H       -1.83219       -26.47200        13.83129
   H       -5.11630       -22.38072        12.03345
*
