# ORCA input file
# SCF done       -219.082852130832          0.000550653367
! CAM-B3LYP def2-SVP def2/J RIJCOSX Grid4 TightSCF
%maxcore 5000
%tddft
    Mode sTDDFT
    Ethresh 5.0
    maxcore 5000
end

%pal
  nprocs 6
  end
* xyz 0 1
   C      -11.27176        -0.49687        -4.23581
   C      -12.55920        -0.77635        -4.59843
   F      -13.31081         0.16051        -5.19052
   C      -13.11281        -2.05009        -4.35575
   F      -14.37785        -2.29540        -4.72163
   C      -12.37035        -3.02686        -3.75393
   C      -11.04023        -2.76977        -3.36812
   C      -10.47891        -1.48267        -3.61332
   C       -9.14658        -1.20204        -3.23571
   C       -8.39537        -2.17977        -2.63541
   C       -8.96484        -3.46046        -2.39302
   C      -10.25118        -3.75840        -2.74042
   C       -7.97589        -4.32691        -1.72285
   O       -8.18157        -5.42736        -1.26567
   C       -6.73737        -3.50175        -1.61190
   C       -7.01743        -2.18136        -2.15601
   C       -6.13651        -1.13966        -2.26099
   C       -4.78759        -1.16473        -1.84434
   N       -3.68124        -1.10604        -1.54392
   C       -6.46062         0.11777        -2.81567
   N       -6.66315         1.16172        -3.24728
   C       -5.60942        -3.89082        -0.97001
   C       -5.30998        -5.24255        -0.58206
   C       -4.69352        -5.53237         0.63451
   C       -4.44424        -6.85508         1.07709
   N       -3.83664        -6.92812         2.29508
   C       -3.64632        -5.77611         2.80008
   S       -4.18421        -4.40820         1.85199
   C       -4.78342        -7.95641         0.27890
   C       -5.30853        -7.66877        -0.97579
   C       -5.57385        -6.34488        -1.41228
   N       -6.06984        -6.26141        -2.67565
   C       -6.24261        -7.41472        -3.19107
   S       -5.80097        -8.78477        -2.20959
   C       -4.60213        -9.31276         0.77799
   C       -5.06567        -9.67190         2.05093
   C       -4.87627       -10.99497         2.57898
   N       -5.36229       -11.29923         3.81022
   C       -5.96952       -10.38436         4.48212
   C       -6.18041        -9.07815         3.94359
   N       -5.75553        -8.75506         2.77343
   F       -6.85396        -8.16680         4.63929
   F       -6.42226       -10.69850         5.69218
   C       -4.23558       -11.99916         1.84197
   C       -3.77707       -11.64679         0.56616
   C       -3.95948       -10.31193         0.03718
   N       -3.40670       -10.18460        -1.17628
   S       -2.74300       -11.58019        -1.58887
   N       -3.09365       -12.42196        -0.28299
   C       -4.07472       -13.35617         2.34733
   C       -3.57530       -13.65866         3.60829
   C       -3.40669       -14.98815         4.07410
   N       -2.90403       -15.07475         5.33564
   C       -2.65251       -13.92073         5.82551
   S       -3.01086       -12.55192         4.82059
   C       -3.75518       -16.09091         3.27162
   C       -4.29223       -15.77644         2.02242
   C       -4.43900       -14.44917         1.54940
   N       -4.99295       -14.35916         0.30765
   C       -5.23574       -15.50603        -0.18693
   S       -4.83035       -16.88632         0.80626
   C       -3.65189       -17.45470         3.70343
   C       -2.79395       -18.01624         4.58644
   C       -3.13025       -19.34296         5.18530
   O       -3.96377       -20.12343         4.79338
   C       -2.26605       -19.45318         6.37757
   C       -2.27080       -20.40775         7.35377
   C       -1.36219       -20.29418         8.42967
   C       -0.46622       -19.18618         8.47490
   C        0.43364       -19.07700         9.55442
   C        0.44578       -20.02346        10.54000
   C       -0.44032       -21.11887        10.49386
   C       -1.32578       -21.25249         9.46146
   F       -0.40711       -22.03056        11.47468
   F        1.30304       -19.91864        11.56348
   C       -0.48074       -18.21615         7.44706
   C       -1.36438       -18.35056         6.40940
   C       -1.58261       -17.53507         5.21984
   C       -0.69090       -16.64378         4.68974
   C       -0.83995       -16.05532         3.41747
   N       -0.90324       -15.57744         2.37577
   C        0.50208       -16.25172         5.33009
   N        1.47267       -15.88321         5.81936
   H      -10.86367         0.48290        -4.42920
   H      -12.80868        -3.99604        -3.57427
   H       -8.75462        -0.21669        -3.42900
   H      -10.65863        -4.73774        -2.54050
   H       -4.86833        -3.15377        -0.68444
   H       -3.18113        -5.61382         3.75266
   H       -6.63055        -7.56467        -4.17989
   H       -2.24486       -13.78007         6.80807
   H       -5.66881       -15.65498        -1.15669
   H       -4.40959       -18.12446         3.30432
   H       -2.95921       -21.23784         7.30725
   H        1.12070       -18.24672         9.60376
   H       -1.99754       -22.09632         9.44090
   H        0.20048       -17.38256         7.50935
*
