# ORCA input file
# SCF done       -188.097466225734          0.000934406638
! CAM-B3LYP def2-SVP def2/J RIJCOSX Grid4 TightSCF
%maxcore 5000
%tddft
    Mode sTDDFT
    Ethresh 5.0
    maxcore 5000
end

%pal
  nprocs 6
  end
* xyz 0 1
   C        5.20185         2.20432         3.22515
   C        5.13479         0.86910         2.91192
   C        5.87409        -0.13542         3.56971
   N        6.44386        -1.00566         4.05705
   C        4.33106         0.29303         1.90778
   N        3.70903        -0.26079         1.11552
   C        6.03312         2.77658         4.28084
   C        5.81347         4.18334         4.31886
   C        6.45446         4.99258         5.21072
   C        7.36596         4.42032         6.12714
   C        7.59271         3.01463         6.09652
   C        6.91244         2.20237         5.15927
   C        8.50330         2.45345         7.01421
   C        9.15996         3.24161         7.92010
   C        8.93611         4.62573         7.94924
   C        8.05791         5.20261         7.07180
   C        4.83420         4.54458         3.28166
   O        4.41515         5.66384         3.03949
   C        4.47372         3.29277         2.60498
   C        3.59888         3.17629         1.55344
   C        2.82844         4.14306         0.89480
   C        1.97494         3.80845        -0.16565
   C        1.26676         4.87214        -0.68594
   C        1.59203         6.06406        -0.00038
   S        2.74654         5.85850         1.24657
   C        0.89840         7.21454        -0.44629
   C       -0.01302         7.01327        -1.49522
  Si       -0.00983         5.21136        -2.01390
   C        0.63727         4.95009        -3.75123
   C       -1.64896         4.36050        -1.70812
   C       -0.65850         8.19770        -1.83404
   C       -0.25595         9.28223        -1.07266
   S        0.95766         8.84584         0.09727
   C       -0.73033        10.61031        -1.15289
   N       -0.28807        11.60467        -0.44289
   C       -0.94432        12.72717        -0.73218
   C       -1.95420        12.63411        -1.70510
   S       -2.05619        11.01910        -2.28380
   N       -2.61719        13.75209        -1.99103
   C       -2.16918        14.74861        -1.28067
   S       -0.83993        14.34433        -0.16196
   C       -2.69173        16.06052        -1.37273
   C       -3.77032        16.45575        -2.14828
   C       -4.05964        17.81287        -2.04520
   C       -3.16953        18.45512        -1.17169
   S       -2.00522        17.39038        -0.48596
   C       -3.36115        19.84671        -1.01087
   C       -4.42865        20.39931        -1.74620
  Si       -5.29405        19.05455        -2.72422
   C       -5.16720        19.28885        -4.57602
   C       -7.04068        18.72988        -2.13507
   C       -4.52878        21.76724        -1.54781
   C       -3.56806        22.28654        -0.68524
   S       -2.51131        21.00632        -0.08864
   C       -3.29740        23.58241        -0.21468
   C       -3.84141        24.80297        -0.52616
   C       -3.40137        26.04565         0.08726
   C       -2.59756        26.19080         1.19010
   C       -2.22058        27.43781         1.73100
   N       -1.86979        28.41540         2.22096
   C       -2.05674        25.15255         1.97694
   N       -1.58911        24.38284         2.69081
   C       -4.01815        27.14950        -0.64046
   C       -4.89351        26.60517        -1.62000
   C       -4.84554        25.13331        -1.56224
   O       -5.51001        24.38255        -2.25033
   C       -5.62682        27.39629        -2.45584
   C       -5.50911        28.80054        -2.35373
   C       -4.62746        29.35474        -1.38212
   C       -3.88549        28.50791        -0.52644
   C       -4.51196        30.75673        -1.29195
   C       -5.23279        31.57358        -2.11989
   C       -6.10164        31.02661        -3.07567
   C       -6.23696        29.66960        -3.18983
   H        6.26940         6.05648         5.21840
   H        7.10831         1.14215         5.16302
   H        8.67201         1.38683         6.98725
   H        9.85598         2.80208         8.61888
   H        9.46235         5.23332         8.67031
   H        7.88163         6.26823         7.09032
   H        3.45681         2.18141         1.14866
   H        1.89284         2.79611        -0.52167
   H        1.58710         5.45506        -3.91699
   H       -0.05810         5.32383        -4.50012
   H        0.79531         3.89512        -3.96547
   H       -2.01745         4.52875        -0.69794
   H       -1.57383         3.28375        -1.84503
   H       -2.41865         4.71311        -2.39172
   H       -1.40160         8.28593        -2.60692
   H       -4.30826        15.75346        -2.75768
   H       -4.14106        19.44380        -4.90415
   H       -5.74119        20.15212        -4.90640
   H       -5.54982        18.42649        -5.11803
   H       -7.09245        18.58166        -1.05798
   H       -7.46372        17.84199        -2.60055
   H       -7.70227        19.55961        -2.37504
   H       -5.26837        22.39272        -2.01240
   H       -2.48980        23.60348         0.50794
   H       -6.28673        26.95570        -3.18851
   H       -3.22510        28.96099         0.19526
   H       -3.84241        31.17316        -0.55364
   H       -5.13741        32.64636        -2.04275
   H       -6.66297        31.68580        -3.72101
   H       -6.90448        29.24242        -3.92407
*
