# ORCA input file
# SCF done       -199.818453776569          0.000912335207
! CAM-B3LYP def2-SVP def2/J RIJCOSX Grid4 TightSCF
%maxcore 5000
%tddft
    Mode sTDDFT
    Ethresh 5.0
    maxcore 5000
end

%pal
  nprocs 6
  end
* xyz 0 1
   C        3.84833         3.89453         2.14783
   C        2.59221         3.41009         1.89056
   C        1.84467         2.64261         2.80497
   N        1.17922         2.04866         3.52832
   C        1.93179         3.56155         0.65325
   N        1.35990         3.59676        -0.34118
   C        4.67880         3.52386         3.28915
   C        6.03759         3.81636         2.97219
   C        7.05339         3.53466         3.83882
   C        6.75100         2.94858         5.08867
   C        5.39339         2.66981         5.41916
   C        4.36180         2.96472         4.49799
   C        5.10550         2.09216         6.67250
   C        6.10844         1.79959         7.55604
   C        7.44493         2.07259         7.22874
   C        7.75912         2.63458         6.02126
   C        6.10293         4.44450         1.63957
   O        7.08781         4.77657         1.02114
   C        4.68241         4.64414         1.22964
   C        4.40326         5.49802         0.21337
   C        3.17310         6.14570        -0.13721
   C        2.99650         6.59597        -1.46567
   O        3.97429         6.27769        -2.34338
   C        3.80172         6.61070        -3.70162
   C        1.85251         7.30906        -1.78827
   C        0.87307         7.58275        -0.84171
   C        1.01142         7.08133         0.47174
   C        2.16900         6.40152         0.80277
   O       -0.03700         7.25612         1.31183
   C        0.03999         6.72116         2.61056
   C       -0.29001         8.37642        -1.22465
   C       -0.78234         9.41812        -0.42525
   C       -1.97947        10.14035        -0.76494
   N       -2.40342        11.15160         0.03548
   C       -1.73030        11.42381         1.09649
   C       -0.52496        10.72954         1.41611
   N       -0.07106         9.78512         0.67091
   F        0.19107        11.07873         2.48626
   F       -2.16698        12.41101         1.87921
   C       -2.70514         9.86548        -1.93020
   C       -2.16880         8.88847        -2.77807
   C       -0.97224         8.14936        -2.42945
   N       -0.66188         7.24843        -3.37106
   S       -1.75033         7.32248        -4.54067
   N       -2.67211         8.48603        -3.95219
   C       -3.94611        10.56665        -2.25389
   C       -4.99683        10.64841        -1.31266
   O       -4.83762         9.97007        -0.15199
   C       -5.92175         9.92575         0.74648
   C       -6.12577        11.36465        -1.65178
   C       -6.28609        11.98991        -2.89812
   C       -5.25419        11.86508        -3.84718
   C       -4.10946        11.14764        -3.49498
   O       -5.23650        12.28759        -5.13625
   C       -6.28104        13.02452        -5.72083
   C       -7.49061        12.76278        -3.10806
   C       -8.75619        12.39044        -2.78332
   C       -9.94539        13.21884        -2.93469
   C       -9.98850        14.54134        -3.29264
   C      -11.17764        15.29364        -3.40220
   N      -12.10255        15.96508        -3.50965
   C       -8.87829        15.34613        -3.62198
   N       -8.03332        16.06456        -3.92349
   C      -11.10708        12.38939        -2.64056
   C      -10.66033        11.07656        -2.31990
   C       -9.18927        11.02275        -2.38143
   O       -8.49958        10.04610        -2.18004
   C      -11.53098        10.06919        -2.01910
   C      -12.91845        10.33354        -2.02280
   C      -13.37534        11.64504        -2.34116
   C      -12.44943        12.66747        -2.64924
   C      -14.76255        11.89747        -2.34719
   C      -15.65605        10.90372        -2.05380
   C      -15.20469         9.61283        -1.74021
   C      -13.86499         9.33404        -1.72410
   H        8.07678         3.75595         3.57457
   H        3.34175         2.74951         4.77659
   H        4.07535         1.88021         6.91906
   H        5.87752         1.35522         8.51267
   H        8.22390         1.83569         7.93800
   H        8.78630         2.84752         5.76325
   H        5.25929         5.78134        -0.39138
   H        2.88687         6.16788        -4.10500
   H        4.66621         6.19303        -4.21519
   H        3.78164         7.69487        -3.85008
   H        1.70487         7.68781        -2.78536
   H        2.33746         6.08490         1.81931
   H        0.84186         7.18762         3.19151
   H        0.18095         5.63504         2.59108
   H       -0.91716         6.94782         3.07763
   H       -6.82557         9.54774         0.25882
   H       -6.12126        10.91056         1.18095
   H       -5.62029         9.24056         1.53737
   H       -6.91627        11.49639        -0.93277
   H       -3.32881        11.06613        -4.23354
   H       -6.09533        12.98257        -6.79465
   H       -6.27212        14.07183        -5.40434
   H       -7.25871        12.58005        -5.50730
   H       -7.35421        13.75043        -3.52276
   H      -11.16369         9.08133        -1.78317
   H      -12.82931        13.64735        -2.89022
   H      -15.10523        12.89278        -2.58939
   H      -16.71648        11.10668        -2.06199
   H      -15.92383         8.84055        -1.51152
   H      -13.51119         8.34209        -1.48376
*
