# ORCA input file
# SCF done       -205.480407055074          0.000495497039
! CAM-B3LYP def2-SVP def2/J RIJCOSX Grid4 TightSCF
%maxcore 5000
%tddft
    Mode sTDDFT
    Ethresh 5.0
    maxcore 5000
end

%pal
  nprocs 6
  end
* xyz 0 1
   C        3.56344         6.59848         3.85402
   C        4.20943         6.74968         2.65549
   C        5.26465         7.66028         2.44431
   N        6.12514         8.38547         2.21880
   C        3.96021         5.93783         1.52989
   N        3.81707         5.27013         0.60692
   C        3.97506         7.20505         5.11356
   C        3.46375         6.41358         6.18456
   C        3.73596         6.71490         7.48821
   C        4.53266         7.84448         7.78278
   C        5.02550         8.65181         6.71648
   C        4.73483         8.31255         5.37520
   C        5.81029         9.78113         7.02560
   C        6.10166        10.09643         8.32483
   C        5.61952         9.29942         9.37385
   C        4.85153         8.19811         9.10878
   C        2.64743         5.31670         5.63541
   O        2.10262         4.41464         6.22838
   C        2.57257         5.58806         4.16881
   C        1.61723         4.98609         3.41374
   C        1.12576         5.38576         2.14508
   C        0.50322         4.57800         1.21029
   C        0.12670         5.26829         0.05671
   C        0.42294         6.63532         0.12733
   S        1.17471         7.05165         1.62018
   C        0.21191         7.44503        -0.99827
   C       -0.37557         6.87742        -2.13077
   C       -0.92474         5.48409        -2.07637
   O       -0.41615         4.67367        -1.01623
   C       -0.40299         7.75196        -3.20187
   C        0.14235         8.99941        -2.90365
   S        0.69322         9.08579        -1.25106
   C        0.30616        10.09654        -3.77776
   C        0.84500        11.32042        -3.30684
   C        1.09151        12.46134        -4.15562
   N        1.58268        13.58127        -3.60829
   C        1.84455        13.62308        -2.32310
   C        1.62365        12.48529        -1.48651
   N        1.13187        11.38438        -2.00467
   C        1.91512        12.53104        -0.10205
   N        2.15540        12.60147         1.01587
   C        2.34627        14.82706        -1.76746
   N        2.74664        15.78900        -1.29185
   C        0.83373        12.40559        -5.54816
   C        0.26988        11.19237        -6.01024
   C       -0.00395        10.06262        -5.15720
   N       -0.53197         9.04844        -5.84158
   S       -0.67008         9.46241        -7.38826
   N       -0.06859        10.94784        -7.27398
   C        1.13834        13.44627        -6.46428
   C        1.65916        14.70711        -6.20869
   C        1.86625        15.45484        -7.36335
   C        1.52295        14.75326        -8.52980
   S        0.89506        13.18359        -8.17398
   C        1.82055        15.32957        -9.77492
   C        2.28835        16.64831        -9.81712
   C        2.30901        17.45825        -8.55614
   O        2.41239        16.68308        -7.36400
   C        2.64163        17.05829       -11.08848
   C        2.45694        16.07387       -12.05646
   S        1.81206        14.60376       -11.33155
   C        2.70602        16.02504       -13.43766
   C        3.24544        16.94120       -14.30573
   C        3.47348        16.66429       -15.71522
   C        3.10749        15.54391       -16.41925
   C        3.36831        15.35564       -17.79319
   N        3.54363        15.12588       -18.90469
   C        2.41210        14.42057       -15.92537
   N        1.84438        13.46596       -15.62904
   C        4.16035        17.81452       -16.29402
   C        4.30487        18.80551       -15.28449
   C        3.72916        18.31244       -14.02279
   O        3.67726        18.94029       -12.98261
   C        4.90511        20.00699       -15.52679
   C        5.40659        20.27687       -16.81953
   C        5.27586        19.28686       -17.83523
   C        4.64454        18.05324       -17.55303
   C        5.78503        19.56248       -19.12049
   C        6.39153        20.75878       -19.39175
   C        6.51708        21.73391       -18.39124
   C        6.03548        21.49777       -17.13211
   H        3.34949         6.09896         8.28660
   H        5.10944         8.94439         4.58493
   H        6.18097        10.38958         6.21400
   H        6.70606        10.96188         8.55143
   H        5.85903         9.56278        10.39322
   H        4.47696         7.58160         9.91283
   H        1.12832         4.12881         3.86631
   H        0.37565         3.51918         1.33646
   H       -0.70124         4.94054        -3.00006
   H       -2.02120         5.52910        -1.96468
   H       -0.79348         7.52479        -4.17654
   H        1.88334        15.05956        -5.22073
   H        1.38772        18.06233        -8.49597
   H        3.16436        18.13892        -8.54193
   H        3.02299        18.03279       -11.33313
   H        2.43948        15.06940       -13.87305
   H        4.99737        20.74143       -14.74037
   H        4.56437        17.32747       -18.34606
   H        5.68539        18.80887       -19.88790
   H        6.77781        20.96041       -20.37967
   H        6.99755        22.67277       -18.62284
   H        6.12983        22.24430       -16.35698
*
