# ORCA input file
# SCF done       -281.853635863036          0.000589018823
! CAM-B3LYP def2-SVP def2/J RIJCOSX Grid4 TightSCF
%maxcore 5000
%tddft
    Mode sTDDFT
    Ethresh 5.0
    maxcore 5000
end

%pal
  nprocs 6
  end
* xyz 0 1
   C        5.86991         6.02292        -0.61441
   C        4.78046         5.98754        -1.44543
   C        4.86275         6.05296        -2.84980
   N        4.87644         6.14227        -3.99475
   C        3.45851         5.81993        -0.98428
   N        2.37675         5.63365        -0.64972
   C        7.25944         5.90261        -1.04273
   C        8.04183         5.47676         0.07083
   C        9.38091         5.23769        -0.04329
   C       10.01128         5.42912        -1.29356
   C        9.23796         5.87110        -2.40596
   C        7.85078         6.10275        -2.26083
   C        9.88087         6.06570        -3.64526
   C       11.22233         5.83360        -3.78222
   C       11.98272         5.39782        -2.68681
   C       11.38997         5.19912        -1.46941
   C        7.18154         5.38076         1.26337
   O        7.47837         5.00295         2.37263
   C        5.85694         5.91875         0.83128
   C        4.96905         6.31986         1.77878
   C        3.85895         7.18971         1.62907
   C        3.62614         8.11535         0.64230
   C        2.43089         8.83901         0.80316
   C        1.90964         9.84533        -0.04535
   C        2.50069        10.15173        -1.32777
   C        2.54394        11.34786        -1.99078
   C        3.12453        11.24432        -3.27125
   C        3.51509         9.97958        -3.61581
   S        3.17480         8.88568        -2.32607
   C        4.14745         9.51925        -4.87716
  Cl        3.31847        12.59365        -4.31687
   C        0.75433        10.47942         0.39220
   C        0.08150        10.12566         1.59163
   C        0.57886         9.09207         2.42025
   C        1.74862         8.47317         1.99242
   S        2.60421         7.22173         2.84675
   C       -0.06526         8.69986         3.65358
   C       -0.17410         7.44106         4.17671
   C       -0.81263         7.42536         5.43386
   C       -1.18343         8.65642         5.89550
   S       -0.75191         9.87436         4.74575
   C       -1.86048         9.00712         7.16894
  Cl       -1.09070         5.96729         6.30503
   C       -1.10504        10.86401         1.75713
   C       -1.33889        11.77143         0.75076
   S       -0.09204        11.74271        -0.46790
   C       -2.44006        12.66768         0.65413
   C       -2.53976        13.57308        -0.42538
   C       -3.61973        14.52086        -0.56931
   N       -3.62168        15.34602        -1.62572
   C       -2.65459        15.28365        -2.50889
   C       -1.58708        14.34014        -2.36980
   N       -1.56709        13.52666        -1.34378
   C       -0.55272        14.28026        -3.33514
   N        0.26036        14.27309        -4.14194
   C       -2.68486        16.17711        -3.60670
   N       -2.68642        16.89826        -4.49741
   C       -4.66987        14.58334         0.37816
   C       -4.57464        13.66613         1.44735
   C       -3.48642        12.72934         1.59881
   N       -3.63214        11.98581         2.69722
   S       -4.98240        12.41163         3.45338
   N       -5.45874        13.55860         2.43894
   C       -5.77565        15.47919         0.29565
   C       -5.99830        16.47244        -0.62874
   C       -7.20756        17.16552        -0.44398
   C       -7.72989        18.21490        -1.23595
   C       -7.07333        18.68638        -2.43362
   C       -7.00811        19.96868        -2.90757
   C       -6.33025        20.06178        -4.13950
   C       -5.88603        18.86737        -4.63616
   S       -6.29411        17.58875        -3.54813
   C       -5.14777        18.59649        -5.89148
  Cl       -6.09413        21.56374        -4.94449
   C       -8.93777        18.75987        -0.80910
   C       -9.65667        18.28090         0.32039
   C       -9.14387        17.20840         1.09021
   C       -7.91539        16.69696         0.69505
   S       -7.06596        15.38660         1.47230
   C       -9.86390        16.64242         2.21051
   C       -9.34478        16.15874         3.38028
   C      -10.33240        15.62204         4.22987
   C      -11.60124        15.67193         3.72537
   S      -11.59016        16.40813         2.16383
   C      -12.86651        15.19869         4.34115
  Cl       -9.95501        14.95916         5.77340
   C      -10.85067        18.99561         0.53286
   C      -11.09021        19.96966        -0.40560
   S       -9.79276        20.05208        -1.59160
   C      -12.13540        20.91194        -0.55317
   C      -13.34057        21.02566         0.07674
   C      -14.29507        22.08618        -0.22220
   C      -14.02295        23.28449        -0.82696
   C      -14.99191        24.28395        -1.05901
   N      -15.73280        25.13292        -1.27809
   C      -12.74952        23.72367        -1.24953
   N      -11.74860        24.16775        -1.59557
   C      -15.58650        21.69342         0.32505
   C      -15.41010        20.49415         1.07028
   C      -13.99974        20.07296         1.00857
   O      -13.51556        19.13456         1.60617
   C      -16.44858        19.88524         1.71423
   C      -17.73839        20.45564         1.63321
   C      -17.92503        21.65155         0.88121
   C      -16.82916        22.26182         0.22924
   C      -19.21713        22.20991         0.80321
   C      -20.27511        21.61793         1.43764
   C      -20.09033        20.44055         2.17779
   C      -18.84918        19.87205         2.27367
   H        9.95396         4.90726         0.81023
   H        7.28984         6.44509        -3.11646
   H        9.29061         6.39807        -4.48659
   H       11.70521         5.98428        -4.73606
   H       13.04034         5.22062        -2.81227
   H       11.97038         4.86347        -0.62252
   H        5.18284         5.98137         2.78774
   H        4.33469         8.31192        -0.14063
   H        2.20979        12.28134        -1.57858
   H        3.48997         9.72431        -5.72181
   H        4.34993         8.45148        -4.83564
   H        5.08098        10.05587        -5.04670
   H        0.14761         6.54867         3.67322
   H       -2.04965         8.10366         7.74303
   H       -2.80760         9.50950         6.97493
   H       -1.24007         9.67925         7.76100
   H       -1.79333        10.74361         2.57197
   H       -5.29236        16.68688        -1.40683
   H       -7.38678        20.82796        -2.38608
   H       -5.73134        17.95257        -6.54916
   H       -4.20844        18.08790        -5.67391
   H       -4.93976        19.53172        -6.40454
   H       -8.30742        16.21438         3.65166
   H      -12.70085        14.96204         5.38945
   H      -13.22975        14.30417         3.83429
   H      -13.63535        15.96523         4.26209
   H      -11.52213        18.82003         1.35156
   H      -11.93495        21.63875        -1.33267
   H      -16.28811        18.97685         2.27588
   H      -17.00412        23.16222        -0.33779
   H      -19.35394        23.11718         0.23331
   H      -21.26068        22.05391         1.37264
   H      -20.93643        19.98629         2.67136
   H      -18.70123        18.96540         2.84211
*
