# ORCA input file
# SCF done       -195.492483119671          0.000449226850
! CAM-B3LYP def2-SVP def2/J RIJCOSX Grid4 TightSCF
%maxcore 5000
%tddft
    Mode sTDDFT
    Ethresh 5.0
    maxcore 5000
end

%pal
  nprocs 6
  end
* xyz 0 1
   C       -7.61568        -1.88530        -0.65820
   C       -7.75878        -3.05536        -1.35852
   C       -7.22196        -4.29308        -0.95297
   N       -6.81021        -5.32593        -0.66691
   C       -8.47196        -3.16527        -2.56886
   N       -9.04337        -3.29729        -3.55578
   C       -6.87051        -1.71927         0.58935
   C       -6.95323        -0.36151         0.99550
   C       -6.32878         0.11705         2.12198
   C       -5.57634        -0.78389         2.88255
   C       -5.50547        -2.13846         2.47646
   C       -6.15203        -2.62487         1.34512
   S       -4.51688        -3.07751         3.55098
   C       -4.21785        -1.65985         4.52048
   C       -4.82625        -0.53841         4.06359
  Br       -3.13540        -1.78939         6.04631
   C       -7.78149         0.36776         0.03182
   O       -8.10513         1.55462         0.08141
   C       -8.16298        -0.59462        -1.00055
   C       -8.94470        -0.22275        -2.07215
   N       -9.37179         1.03786        -2.15828
   C      -10.16500         1.60886        -3.09727
   S      -10.71205         0.75461        -4.50438
   C      -11.52752         2.19259        -5.02442
   N      -12.24224         2.14915        -6.22767
   O      -12.80428         3.16884        -6.58514
   O      -12.24727         1.09009        -6.82960
   C      -11.38583         3.25314        -4.16727
   C      -10.60615         2.93926        -3.03935
   C      -10.26177         3.81682        -1.95580
   C      -10.44182         5.15272        -1.93781
   N       -9.94611         5.98169        -0.96756
   C       -9.12844         5.56549         0.09074
   C       -9.35105         5.89172         1.39520
   S       -8.14439         5.26634         2.43941
   C       -7.30676         4.56015         1.11414
   C       -7.92132         4.80013        -0.08034
   N       -7.47014         4.42391        -1.32508
   C       -6.58544         3.41943        -1.60897
   C       -6.36335         3.00186        -2.86571
   C       -5.40838         2.00190        -3.28832
   C       -4.84020         1.06874        -2.40767
   C       -3.87004         0.20329        -2.85765
   C       -3.48540         0.21989        -4.21052
   C       -4.07710         1.09982        -5.10403
   C       -5.02870         1.98010        -4.63605
   C       -2.46027        -0.77568        -4.41932
   C       -2.20495        -1.41997        -3.19693
   C       -3.12513        -0.89127        -2.11231
   C       -2.26908        -0.37807        -0.93870
   C       -3.02192         0.12759         0.28596
   C       -4.16629        -1.95648        -1.70571
   C       -3.61053        -3.20675        -1.03759
   C       -1.21281        -2.36466        -3.10684
   C       -0.48666        -2.72993        -4.25273
   C       -0.77615        -2.09260        -5.46814
   C       -1.74420        -1.11527        -5.55872
   C        0.53940        -3.74005        -4.23043
   C        0.92119        -4.47624        -3.16448
   C        1.92366        -5.47877        -3.19034
   S        2.79094        -5.90710        -4.62585
   C        3.70963        -7.10519        -3.82075
   C        3.38379        -7.19648        -2.48836
   C        2.35788        -6.26436        -2.11451
   C        1.92262        -6.23457        -0.78371
   C        2.45366        -7.07648         0.16549
   C        1.90219        -6.93134         1.54583
   O        1.05800        -6.10939         1.80189
   O        2.37244        -7.74097         2.49712
   C        3.47247        -8.00679        -0.21970
   O        3.99481        -8.84793         0.73299
   C        3.92164        -8.06132        -1.50718
   H       -6.41532         1.15346         2.40881
   H       -6.07521        -3.66713         1.08635
   H       -4.74886         0.42182         4.53966
   H       -9.24028        -0.91282        -2.85137
   H       -9.03391         1.63299        -1.37765
   H      -11.84743         4.20396        -4.35865
   H       -9.79073         3.36320        -1.09705
   H      -10.96363         5.66878        -2.73104
   H      -10.42745         6.85680        -0.82377
   H      -10.16275         6.46390         1.79790
   H       -6.39740         4.02736         1.29559
   H       -7.98063         4.80077        -2.11084
   H       -6.07884         2.99862        -0.75688
   H       -6.89416         3.50494        -3.66657
   H       -5.18372         1.03676        -1.38475
   H       -3.79497         1.09862        -6.14617
   H       -5.48677         2.68315        -5.31734
   H       -1.63621         0.42680        -1.32206
   H       -1.60814        -1.18805        -0.62602
   H       -3.60291         1.01508         0.05348
   H       -2.30663         0.39084         1.06306
   H       -3.68741        -0.63357         0.68492
   H       -4.70290        -2.25214        -2.61252
   H       -4.88974        -1.47872        -1.04247
   H       -2.94549        -3.73873        -1.71102
   H       -4.42641        -3.88007        -0.78518
   H       -3.07256        -2.96630        -0.12426
   H       -0.97535        -2.82340        -2.16087
   H       -0.21599        -2.37317        -6.34879
   H       -1.93950        -0.62120        -6.49871
   H        1.03577        -3.92260        -5.17671
   H        0.45412        -4.33103        -2.20145
   H        4.43437        -7.67389        -4.36761
   H        1.15601        -5.54669        -0.46195
   H        3.04954        -8.34667         2.15035
   H        4.66545        -9.41436         0.33255
   H        4.69248        -8.76583        -1.78987
*
