# ORCA input file
# SCF done       -197.476677776039          0.001302607407
! CAM-B3LYP def2-SVP def2/J RIJCOSX Grid4 TightSCF
%maxcore 5000
%tddft
    Mode sTDDFT
    Ethresh 5.0
    maxcore 5000
end

%pal
  nprocs 6
  end
* xyz 0 1
   C       -1.97943         1.00539         2.69873
   C       -1.88519        -0.10261         3.50149
   C       -0.90954        -0.27609         4.50336
   N       -0.13970        -0.47120         5.33226
   C       -2.75086        -1.21166         3.41663
   N       -3.43076        -2.13633         3.37848
   C       -1.09868         2.17012         2.74089
   C       -1.49626         3.08636         1.73237
   C       -0.86137         4.28785         1.52986
   C        0.21667         4.60399         2.36346
   C        0.60686         3.68463         3.36601
   C       -0.03424         2.46763         3.56920
   S        1.95677         4.27576         4.28487
   C        1.97714         5.73197         3.32585
   C        1.02416         5.77396         2.36436
  Br        3.25386         7.05826         3.68360
   C       -2.65301         2.53175         1.01981
   O       -3.26652         3.03665         0.08301
   C       -2.94779         1.24503         1.65493
   C       -4.02860         0.48716         1.27018
   N       -4.82272         0.91223         0.28263
   C       -5.96687         0.33631        -0.16579
   S       -6.57272        -1.15248         0.49034
   C       -7.95107        -1.01888        -0.55300
   N       -8.91416        -2.03470        -0.49704
   O       -9.88074        -1.93670        -1.22973
   O       -8.70852        -2.94295         0.28853
   C       -7.93933         0.09884        -1.34508
   C       -6.79700         0.89447        -1.14358
   C       -6.49605         2.12095        -1.84373
   C       -7.42430         2.91965        -2.39237
   C       -7.13159         4.15218        -3.09669
   C       -5.94214         4.31534        -3.81987
   C       -5.70085         5.50304        -4.46789
   C       -6.59854         6.57784        -4.33208
   C       -7.78676         6.42077        -3.63343
   C       -8.05747         5.19967        -3.04954
   C       -6.03916         7.73414        -4.99671
   C       -4.81887         7.36325        -5.58665
   C       -4.53735         5.89350        -5.35104
   C       -3.17976         5.66467        -4.67174
   C       -3.05563         6.41699        -3.35174
   C       -4.61198         5.19193        -6.72833
   C       -4.54317         3.67066        -6.70699
   C       -4.08351         8.27862        -6.29799
   C       -4.52198         9.60989        -6.37974
   C       -5.72660         9.96991        -5.75993
   C       -6.49416         9.04234        -5.08674
   C       -3.73613        10.57012        -7.11557
   C       -3.67805        11.89450        -6.84030
   C       -2.94539        12.86757        -7.56578
   C       -2.52560        12.81007        -8.86643
   C       -1.80833        13.83473        -9.54318
   C       -1.62352        13.61494       -10.87069
   C       -2.18904        12.40399       -11.33704
   S       -2.90856        11.52290       -10.00447
   C       -2.24625        11.94541       -12.63578
   C       -1.70548        12.55792       -13.79113
   C       -1.99009        11.90255       -14.94734
   C       -2.77870        10.73466       -14.77646
   S       -3.10536        10.47911       -13.07116
   C       -3.26232         9.93714       -15.77899
   C       -4.05201         8.78466       -15.57650
   O       -4.23936         8.33992       -14.29653
   C       -4.93894         7.22016       -14.31852
   C       -5.24941         6.88114       -15.61981
   N       -5.97667         5.75488       -16.02718
   O       -6.43575         5.03099       -15.16706
   O       -6.10793         5.56749       -17.23103
   C       -4.69290         7.90326       -16.46252
   N       -4.83856         7.91179       -17.80877
   C       -4.64938         8.95157       -18.68681
   C       -4.81146         8.81780       -19.99930
   H       -1.18839         4.96553         0.75684
   H        0.29951         1.80239         4.34791
   H        0.89366         6.59598         1.68449
   H       -4.28419        -0.44960         1.74825
   H       -4.53283         1.82111        -0.12368
   H       -8.71797         0.30953        -2.05485
   H       -5.45482         2.40976        -1.89057
   H       -8.47282         2.68475        -2.26450
   H       -5.23810         3.49953        -3.87333
   H       -8.48971         7.23610        -3.55129
   H       -8.98242         5.05590        -2.50959
   H       -2.38811         5.98775        -5.35119
   H       -3.04712         4.59835        -4.48446
   H       -3.17725         7.48713        -3.50553
   H       -2.07649         6.24026        -2.91198
   H       -3.81409         6.08245        -2.64729
   H       -3.79327         5.57785        -7.33985
   H       -5.54858         5.49232        -7.20546
   H       -3.63033         3.31969        -6.23268
   H       -4.55556         3.29685        -7.72867
   H       -5.39837         3.25032        -6.18472
   H       -3.15388         8.00047        -6.77378
   H       -6.07457        10.98843        -5.84415
   H       -7.43135         9.33133        -4.63483
   H       -3.10749        10.16419        -7.89667
   H       -4.18663        12.26230        -5.95787
   H       -2.73233        13.79455        -7.04747
   H       -1.46623        14.70981        -9.01875
   H       -1.12076        14.29737       -11.53219
   H       -1.12932        13.46409       -13.73694
   H       -1.67205        12.22168       -15.92431
   H       -3.00193        10.19530       -16.79240
   H       -5.16784         6.72829       -13.39457
   H       -5.26480         7.06553       -18.18462
   H       -4.38912         9.89815       -18.24032
   H       -5.08349         7.87466       -20.44045
   H       -4.67975         9.65042       -20.66300
*
