# ORCA input file
# SCF done       -174.299059173842          0.000749328364
! CAM-B3LYP def2-SVP def2/J RIJCOSX Grid4 TightSCF
%maxcore 5000
%tddft
    Mode sTDDFT
    Ethresh 5.0
    maxcore 5000
end

%pal
  nprocs 6
  end
* xyz 0 1
   C       -7.84079       -14.93747         9.34158
   C       -7.13535       -14.66207        10.44653
   C       -7.62197       -14.13044        11.68835
   C       -6.67210       -13.95833        12.63243
   C       -5.36120       -14.33878        12.22452
   S       -5.38745       -14.92296        10.57193
   C       -4.20972       -14.28765        12.96902
   C       -4.05884       -13.84617        14.30922
   C       -2.78921       -13.93182        14.77671
   C       -1.84925       -14.44740        13.84022
   S       -2.65833       -14.80748        12.32517
   C       -0.52024       -14.64981        14.08332
   C        0.44988       -15.17281        13.20497
   C        1.78019       -15.39675        13.50933
   C        2.50865       -15.92675        12.44211
  Cl        4.20254       -16.19748        12.53042
   C        1.76496       -16.13360        11.29766
   S        0.11618       -15.63479        11.55648
   C        2.18347       -16.65555        10.03359
   C        2.96046       -17.74736         9.74183
  Cl        3.52641       -18.84882        10.92771
   C        3.20888       -17.94994         8.36816
   C        2.60137       -17.00731         7.58794
   S        1.70051       -15.86621         8.54477
   N        2.68320       -16.83357         6.23237
   C        2.98184       -17.87391         5.34194
   C        2.63189       -19.18175         5.47988
   S        3.20496       -20.14288         4.18118
   C        3.91940       -18.77120         3.42158
   C        3.74136       -17.62837         4.14650
   N        4.20150       -16.36571         3.85354
   C        5.05767       -16.03032         2.83904
   C        5.54186       -14.78981         2.66978
   C        6.47027       -14.36740         1.64581
   C        7.11973       -15.27163         0.79230
   C        8.02152       -14.80711        -0.13220
   C        8.30063       -13.43426        -0.24357
   C        7.65913       -12.52757         0.58680
   C        6.75942       -13.00184         1.52004
   C        9.30049       -13.24922        -1.27325
   C        9.64250       -14.50900        -1.79594
   C        8.84647       -15.60034        -1.11895
   C        7.95303       -16.34994        -2.12437
   C        7.00671       -15.42327        -2.87791
   C        9.76976       -16.60243        -0.40166
   C       10.69121       -15.93461         0.61160
   C       10.59475       -14.63187        -2.77531
   C       11.24194       -13.48553        -3.26343
   C       10.87729       -12.23557        -2.74313
   C        9.91904       -12.10605        -1.75790
   C       12.27981       -13.54186        -4.26536
   C       12.79740       -14.65834        -4.81312
   C       13.84511       -14.68613        -5.78338
   C       14.52923       -13.66387        -6.39423
   C       15.50911       -14.11699        -7.29232
  Cl       16.43770       -13.03874        -8.25384
   C       15.60500       -15.48690        -7.38265
   S       14.43012       -16.22965        -6.33986
   C       16.48426       -16.29321        -8.18136
   C       17.83915       -16.18279        -8.37256
  Cl       18.82789       -15.03021        -7.57356
   C       18.37565       -17.16599        -9.23531
   C       17.42917       -18.02562        -9.68494
   S       15.86846       -17.65701        -9.07229
   H       -8.90201       -14.76426         9.31013
   H       -7.37601       -15.33654         8.45899
   H       -8.66552       -13.90253        11.81513
   H       -6.86000       -13.57202        13.61861
   H       -4.89223       -13.48423        14.88409
   H       -2.48301       -13.64742        15.76811
   H       -0.15897       -14.39365        15.07117
   H        2.21332       -15.17361        14.46680
   H        3.81838       -18.74896         7.99227
   H        2.15795       -16.05505         5.85858
   H        2.07251       -19.63185         6.27435
   H        4.43715       -18.90827         2.49563
   H        4.02974       -15.65968         4.55582
   H        5.30429       -16.84076         2.17340
   H        5.22395       -14.01709         3.35975
   H        6.92631       -16.33020         0.87485
   H        7.86398       -11.46971         0.51273
   H        6.26094       -12.30380         2.17808
   H        7.37151       -17.10004        -1.58370
   H        8.59187       -16.87403        -2.83858
   H        6.34903       -14.90232        -2.18562
   H        6.39462       -15.99546        -3.57163
   H        7.56625       -14.68127        -3.44308
   H       10.37124       -17.12290        -1.15010
   H        9.15234       -17.34671         0.10606
   H       11.33138       -15.20313         0.12367
   H       11.32221       -16.67875         1.09213
   H       10.11190       -15.42568         1.37870
   H       10.84709       -15.60551        -3.16571
   H       11.37112       -11.35180        -3.12218
   H        9.66173       -11.13203        -1.36884
   H       12.67225       -12.58268        -4.57610
   H       12.43271       -15.63265        -4.52046
   H       14.33972       -12.62123        -6.22160
   H       19.41851       -17.21980        -9.48621
   H       17.55183       -18.86244       -10.34246
*
