# ORCA input file
# SCF done       -208.390255333496          0.000830094777
! CAM-B3LYP def2-SVP def2/J RIJCOSX Grid4 TightSCF
%maxcore 5000
%tddft
    Mode sTDDFT
    Ethresh 5.0
    maxcore 5000
end

%pal
  nprocs 6
  end
* xyz 0 1
   C       15.26983       -13.30247         5.15763
   C       14.71559       -13.37152         3.94001
   C       15.36196       -13.69917         2.70143
   C       14.53659       -13.73301         1.63283
   C       13.18010       -13.42161         1.93192
   S       12.99627       -13.08272         3.64021
   C       12.12652       -13.37892         1.05514
   C       12.12699       -13.65886        -0.33410
   C       10.91209       -13.53806        -0.92351
   C        9.86344       -13.12331        -0.05286
   S       10.50872       -12.93826         1.57275
   C        8.56225       -12.97601        -0.43664
   C        7.43167       -12.51337         0.28102
   S        5.88212       -13.12057        -0.24453
   C        5.03173       -12.21010         0.96649
   C        5.92076       -11.45316         1.71270
   C        7.26502       -11.60168         1.31365
   C        8.33598       -10.70326         1.84884
   C        7.71640        -9.39652         2.33925
   C        6.67666        -9.73841         3.39573
   N        6.16901        -8.52554         4.08351
   O        6.90519        -7.57581         4.17643
   O        5.04432        -8.57767         4.52925
   C        5.49829       -10.50861         2.80002
   C        3.61118       -12.35787         0.96995
   C        2.72262       -11.83987         1.83400
   N        1.35327       -12.05433         1.76423
   C        0.66095       -12.60013         0.70450
   O        1.11699       -12.86655        -0.38411
   C       -0.77835       -12.84814         1.15628
   C       -0.80801       -12.21102         2.50422
   C        0.48082       -11.78115         2.82756
   C        0.74624       -11.17225         4.03822
   C       -0.30025       -10.98680         4.93751
   C       -1.57972       -11.41939         4.60894
   C       -1.84270       -12.03893         3.39634
   C       -0.03673       -10.34266         6.26391
   C       -0.97413       -14.39244         1.22458
   C        0.30054       -14.93562         1.86115
   O        0.64006       -14.78040         3.01230
   N        1.02950       -15.57226         0.87561
   C        0.27178       -15.66856        -0.30003
   C       -0.95132       -15.01509        -0.12998
   C       -1.87230       -14.98860        -1.15215
   C       -1.56424       -15.63381        -2.34186
   C       -0.35125       -16.28706        -2.51713
   C       -0.02227       -16.95713        -3.81614
   C        0.58177       -16.30766        -1.48232
   C        2.38425       -15.84198         0.93038
   C        3.17206       -15.56734         1.98296
   C        4.59025       -15.66910         1.97954
   S        5.50247       -16.35834         0.66952
   C        7.01500       -15.90079         1.41426
   C        6.78806       -15.26993         2.63076
   C        5.42980       -15.14824         2.95025
   C        4.93122       -14.44895         4.17881
   C        6.07158       -14.12377         5.14035
   C        7.25789       -13.58286         4.34094
   N        8.25907       -13.03682         5.27352
   O        8.40081       -11.83230         5.27061
   O        8.84559       -13.80486         5.99073
   C        7.86477       -14.70063         3.49972
   C        8.26703       -16.13998         0.81424
   C        8.45667       -16.58749        -0.45979
   C        9.69671       -16.82491        -1.07953
   C       10.95484       -16.84531        -0.52711
   C       12.15252       -17.07690        -1.25305
   C       13.28403       -17.09942        -0.49953
   C       13.05671       -16.89348         0.88170
   S       11.34679       -16.65021         1.17439
   C       13.97290       -16.86812         1.90646
   C       15.38316       -17.01972         1.81449
   C       16.03118       -16.92420         2.99711
   C       15.17627       -16.69403         4.12515
   S       13.49660       -16.62776         3.57546
   C       15.53051       -16.53098         5.40752
   H       16.32004       -13.49042         5.29377
   H       14.69039       -13.05738         6.02839
   H       16.41809       -13.90071         2.67088
   H       14.84884       -13.96687         0.63014
   H       13.02394       -13.95278        -0.84942
   H       10.72087       -13.71853        -1.96662
   H        8.34139       -13.32290        -1.43946
   H        9.06538       -10.50203         1.06371
   H        8.87026       -11.17506         2.67822
   H        7.24359        -8.86865         1.50791
   H        8.48540        -8.75406         2.76685
   H        7.17170       -10.32259         4.18450
   H        4.78201        -9.79431         2.37917
   H        4.97955       -11.05392         3.59310
   H        3.23544       -12.96780         0.16145
   H        3.00793       -11.22926         2.67341
   H       -1.49750       -12.43114         0.44829
   H        1.73516       -10.83310         4.30528
   H       -2.38295       -11.27194         5.31524
   H       -2.84076       -12.37339         3.15577
   H        0.16643       -11.10872         7.01275
   H       -0.90040        -9.77125         6.59514
   H        0.82607        -9.68292         6.21273
   H       -1.86333       -14.61569         1.81606
   H       -2.81694       -14.47942        -1.03259
   H       -2.28035       -15.62343        -3.14990
   H       -0.91027       -17.07401        -4.43142
   H        0.41898       -17.93679        -3.64379
   H        0.70110       -16.35779        -4.36873
   H        1.52212       -16.81761        -1.62396
   H        2.80077       -16.22880         0.01173
   H        2.73164       -15.17014         2.88353
   H        4.18988       -15.06730         4.68859
   H        4.42707       -13.52666         3.87236
   H        6.38732       -15.02076         5.67606
   H        5.73479       -13.38898         5.87513
   H        6.93608       -12.76084         3.69638
   H        8.27907       -15.46922         4.15958
   H        8.67884       -14.30771         2.88801
   H        9.12250       -15.90504         1.42799
   H        7.57693       -16.75126        -1.07001
   H        9.66430       -17.04224        -2.14046
   H       12.13397       -17.22184        -2.31949
   H       14.27039       -17.27005        -0.89315
   H       15.86770       -17.18751         0.86864
   H       17.09612       -17.00852         3.12425
   H       16.56383       -16.57940         5.70244
   H       14.80102       -16.35688         6.17642
*
