# ORCA input file
# SCF done       -202.345648163484          0.000814344235
! CAM-B3LYP def2-SVP def2/J RIJCOSX Grid4 TightSCF
%maxcore 5000
%tddft
    Mode sTDDFT
    Ethresh 5.0
    maxcore 5000
end

%pal
  nprocs 6
  end
* xyz 0 1
   C        4.50472        -4.41950         2.02246
   S        5.55431        -3.53249         1.00862
   C        6.91269        -4.54656         1.43818
   C        6.51934        -5.52966         2.33734
   C        5.13567        -5.45015         2.66921
   C        4.48554        -6.33142         3.55690
   N        3.94992        -7.04506         4.27424
   C        7.37906        -6.51567         2.85293
   N        8.05760        -7.33738         3.27383
   C        8.21544        -4.36287         0.91125
   C        8.50238        -3.42094        -0.02415
   C        9.74727        -3.15384        -0.65202
   C       11.06766        -3.29073        -0.23624
   N       11.60728        -3.80011         0.96137
   O       10.91975        -4.50644         1.67803
   O       12.75710        -3.48691         1.21480
   C       11.93699        -2.67808        -1.20770
   C       11.18619        -2.13722        -2.20014
   C        9.80609        -2.41654        -1.93078
   C        8.74461        -2.19196        -2.78851
   C        7.57634        -2.99995        -2.92475
   C        6.89796        -2.61773        -4.04920
   C        7.56798        -1.50665        -4.63492
   N        7.05698        -0.79324        -5.73749
   O        7.54041         0.29477        -5.99974
   O        6.14394        -1.30968        -6.35551
   C        8.70677        -1.20016        -3.88211
   C        9.56656        -0.11075        -4.07954
   C       10.27580         0.52050        -3.08545
   C       11.19013         1.54762        -3.34775
   N       11.78296         2.33314        -2.38924
   C       11.60568         2.22742        -0.95912
   C       12.44876         1.10033        -0.36800
   C       12.66401         3.26927        -2.94630
   O       13.29116         4.07784        -2.29381
   C       12.60640         3.01715        -4.37597
   C       11.70780         1.96920        -4.59059
   C       11.70967         1.65136        -6.01170
   O       11.11976         0.80905        -6.64744
   N       12.61708         2.56844        -6.56617
   C       12.93548         2.53385        -7.97653
   C       14.24316         1.79534        -8.25021
   C       13.17703         3.38521        -5.61856
   C       14.16597         4.33260        -5.90520
   C       14.69668         5.18546        -4.96574
   C       15.77988         6.05725        -5.16275
   C       16.71638         6.14961        -6.21397
   N       17.03836         5.24375        -7.24310
   O       16.61683         4.09766        -7.19281
   O       17.75597         5.65764        -8.13650
   C       17.49841         7.32758        -6.04538
   C       17.05495         8.00227        -4.94603
   C       16.01110         7.24626        -4.32578
   C       15.39465         7.59937        -3.13324
   C       14.94007         6.75025        -2.08715
   C       14.67847         7.51225        -0.98236
   C       14.87961         8.89091        -1.30609
   N       14.58693         9.94141        -0.41417
   O       14.62308        11.08614        -0.83412
   O       14.30674         9.63676         0.73015
   C       15.30193         8.99209        -2.62688
   C       15.47144        10.17567        -3.37381
   C       15.29608        10.26735        -4.72430
   C       15.53323        11.42534        -5.49873
   S       14.95384        11.48221        -7.14286
   C       15.59610        13.07009        -7.38973
   C       16.23956        13.52642        -6.24647
   C       16.21320        12.59867        -5.17516
   C       16.88652        12.84161        -3.96484
   N       17.48697        13.05670        -3.01212
   C       16.86373        14.78633        -6.17089
   N       17.37292        15.81151        -6.12395
   C       15.46883        13.78596        -8.62545
   C       14.86262        13.30740        -9.71128
   H        3.47007        -4.14679         2.09948
   H        8.97710        -5.03296         1.28362
   H        7.68170        -2.80616        -0.37847
   H       13.00716        -2.68544        -1.12202
   H       11.55161        -1.68433        -3.10067
   H        7.35030        -3.85773        -2.32169
   H        6.00324        -3.05489        -4.45093
   H        9.60649         0.29099        -5.08672
   H       10.09623         0.24951        -2.05462
   H       10.54546         2.08425        -0.73577
   H       11.92799         3.18430        -0.53987
   H       12.17497         0.13662        -0.79210
   H       12.30576         1.06054         0.70785
   H       13.50203         1.27924        -0.56855
   H       12.97368         3.55470        -8.36445
   H       12.10714         2.00560        -8.45682
   H       15.09155         2.29882        -7.79289
   H       14.40897         1.74371        -9.32238
   H       14.18580         0.78173        -7.86131
   H       14.52796         4.35800        -6.91914
   H       14.22345         5.21648        -3.99540
   H       18.31647         7.59305        -6.68790
   H       17.49508         8.88697        -4.52961
   H       14.91457         5.67963        -2.10940
   H       14.36782         7.16673        -0.01451
   H       15.66986        11.07335        -2.80069
   H       14.89500         9.42088        -5.26700
   H       15.91244        14.77348        -8.62615
   H       14.41862        12.32481        -9.72514
   H       14.79545        13.88381       -10.61594
*
