# ORCA input file
# SCF done       -198.051098216587          0.000441326856
! CAM-B3LYP def2-SVP def2/J RIJCOSX Grid4 TightSCF
%maxcore 5000
%tddft
    Mode sTDDFT
    Ethresh 5.0
    maxcore 5000
end

%pal
  nprocs 6
  end
* xyz 0 1
   C       -0.24146        -4.93210         5.69867
   C       -0.72174        -6.05283         6.32695
   C        0.11324        -7.17117         6.53642
   N        0.79698        -8.07687         6.70166
   C       -2.03095        -6.21151         6.81545
   N       -3.08379        -6.40028         7.23277
   C       -0.91738        -3.69891         5.38990
   C       -0.07688        -2.76900         4.74134
   C       -0.58338        -1.52595         4.36770
   C       -1.90189        -1.22113         4.64031
   C       -2.72704        -2.13864         5.28266
   C       -2.24545        -3.37672         5.66031
   C        1.26611        -3.25076         4.52915
   S        1.41795        -4.88320         5.15287
   C        2.27930        -2.54121         3.94945
   C        3.60563        -2.92895         3.67984
   C        4.56299        -2.07102         3.15348
   C        5.78920        -2.75667         3.02306
   C        5.53384        -4.14265         3.46678
   C        4.23671        -4.23189         3.85590
   C        6.42011        -5.22633         3.39577
   N        7.09053        -6.15393         3.30806
   C        7.00210        -2.25018         2.58705
   C        8.26097        -2.88978         2.61182
   C        9.21817        -2.04287         2.05840
   C        8.54331        -0.81627         1.66914
   C        7.22739        -0.92057         1.99925
   C        6.26711         0.07171         1.77497
   N        5.50024         0.90447         1.57883
   C       10.58276        -2.38356         1.93997
   N       11.54406        -1.73318         1.21276
   C       11.39343        -0.57197         0.37850
   C       12.79913        -2.38590         1.28339
   O       13.77851        -2.01407         0.68106
   C       12.55953        -3.50422         2.16997
   C       11.20991        -3.49368         2.54377
   C       10.99951        -4.60344         3.45805
   O       10.04175        -4.96236         4.10182
   N       12.25321        -5.25650         3.50909
   C       12.44564        -6.37593         4.39102
   C       13.19945        -4.60631         2.76483
   C       14.56456        -4.91199         2.60553
   C       15.17363        -6.11632         2.80473
   C       16.56309        -6.35059         2.66071
   C       17.65016        -5.55106         3.01156
   N       17.66351        -4.30802         3.67527
   O       18.75148        -3.78837         3.84913
   O       16.60959        -3.83178         4.06337
   C       18.86422        -6.27127         2.76015
   C       18.55547        -7.50838         2.28734
   C       17.13087        -7.62007         2.18207
   C       16.42444        -8.62241         1.53841
   C       15.19669        -8.44961         0.83200
   C       14.97113        -9.54948         0.05508
   C       16.00823       -10.50166         0.28786
   N       16.02787       -11.76105        -0.33045
   O       16.93846       -12.53483        -0.06940
   O       15.12744       -12.01293        -1.11305
   C       16.90417        -9.98456         1.23175
   C       17.94099       -10.69356         1.85940
   C       18.48699       -10.40360         3.08300
   C       19.53396       -11.15513         3.63457
   C       20.08143       -10.92051         4.86654
   C       21.15918       -11.63267         5.49597
   C       21.48054       -11.14607         6.78194
   C       20.64715       -10.03976         7.17745
   C       20.64553        -9.32938         8.35077
   C       21.51171        -9.55356         9.43587
   N       22.19047        -9.69173        10.35141
   C       19.71586        -8.28660         8.55142
   N       18.94660        -7.45014         8.70543
   S       19.50503        -9.63702         5.91534
   C       22.50494       -11.73755         7.51755
   C       23.19696       -12.80097         6.97088
   C       22.88122       -13.28185         5.70376
   C       21.86874       -12.70689         4.96253
   H        0.04427        -0.80573         3.86741
   H       -2.29677        -0.25954         4.35047
   H       -3.75484        -1.88350         5.48808
   H       -2.89068        -4.08307         6.15597
   H        2.04309        -1.52645         3.65378
   H        4.40703        -1.03625         2.91826
   H        3.75316        -5.12268         4.20897
   H        8.44728        -3.86669         3.01255
   H        8.99705         0.04845         1.22703
   H       10.57724        -0.70411        -0.33282
   H       12.33191        -0.45734        -0.16635
   H       11.22819         0.32571         0.97725
   H       11.59516        -6.39267         5.07434
   H       13.37102        -6.26082         4.95547
   H       12.45765        -7.31834         3.83903
   H       15.14291        -4.08769         2.21153
   H       14.57564        -6.99256         3.01189
   H       19.84027        -5.86063         2.93561
   H       19.25242        -8.24922         1.94826
   H       14.62813        -7.54048         0.80577
   H       14.16365        -9.70613        -0.63505
   H       18.26440       -11.59678         1.35619
   H       18.08878        -9.58858         3.67359
   H       19.93817       -11.96522         3.04308
   H       22.75696       -11.37266         8.49955
   H       23.99161       -13.26268         7.53573
   H       23.43427       -14.11388         5.29585
   H       21.62972       -13.08541         3.98152
*
