# ORCA input file
# SCF done       -225.146364307188          0.000953009834
! CAM-B3LYP def2-SVP def2/J RIJCOSX Grid4 TightSCF
%maxcore 5000
%tddft
    Mode sTDDFT
    Ethresh 5.0
    maxcore 5000
end

%pal
  nprocs 6
  end
* xyz 0 1
   C       -5.59238        -3.63424         1.45620
   C       -4.64886        -4.38250         2.10231
   F       -3.79266        -3.79813         2.94823
   C       -4.55967        -5.77266         1.88507
   F       -3.61931        -6.47596         2.52653
   C       -5.41626        -6.39646         1.02251
   C       -6.40578        -5.65393         0.35016
   C       -6.49926        -4.24785         0.56992
   C       -7.50660        -3.48907        -0.06878
   C       -8.42381        -4.12438        -0.86430
   C       -8.33455        -5.53278        -1.05779
   C       -7.33893        -6.28430        -0.50091
   C       -9.51342        -5.99109        -1.79905
   O       -9.70304        -7.07817        -2.30854
   C      -10.40077        -4.79966        -1.90678
   C       -9.63193        -3.63246        -1.52294
   C      -10.00581        -2.32515        -1.66493
   C      -11.23998        -1.90996        -2.21064
   N      -12.24975        -1.52313        -2.59292
   C       -9.19950        -1.23662        -1.27013
   N       -8.57724        -0.32131        -0.96783
   C      -11.71029        -4.90997        -2.27833
   C      -12.40754        -6.12713        -2.07492
   C      -13.31199        -6.80354        -2.89103
   N      -13.66159        -6.42969        -4.19142
   O      -14.33913        -7.20125        -4.84997
   O      -13.24548        -5.35730        -4.61085
   C      -13.68577        -8.02712        -2.26206
   C      -12.99323        -8.13701        -1.08416
   C      -12.18135        -6.98506        -0.91238
   C      -11.33871        -6.62055         0.15238
   C      -11.28027        -5.33382         0.72906
   C      -10.32346        -5.31293         1.71706
   C       -9.69852        -6.58041         1.77468
   N       -8.57278        -6.83027         2.55580
   O       -8.10792        -7.96587         2.59848
   O       -8.07180        -5.88181         3.14470
   C      -10.30917        -7.44019         0.82700
   C       -9.84627        -8.70497         0.48517
   C      -10.26229        -9.43114        -0.61499
   C       -9.94747       -10.72842        -0.98757
   S      -10.72752       -11.27553        -2.44333
   C      -10.00132       -12.84573        -2.38207
   C       -9.14377       -12.94908        -1.25896
   C       -9.12565       -11.76777        -0.45848
   C       -8.32628       -11.72464         0.68693
   C       -7.54343       -12.80735         1.03640
   C       -6.67648       -12.76686         2.25047
   C       -7.55908       -13.95902         0.23105
   C       -8.33743       -14.03710        -0.89462
   C      -10.31720       -13.67325        -3.47091
   C       -9.94936       -14.94798        -3.79143
   C      -10.19010       -15.47056        -5.08516
   S      -10.14702       -17.17109        -5.40640
   C      -10.49921       -16.92590        -7.08712
   C      -10.64577       -18.02005        -8.06949
   O      -10.90629       -17.79617        -9.21869
   O      -10.47855       -19.26755        -7.61447
   C      -10.61872       -15.59152        -7.39056
   C      -10.44155       -14.76450        -6.27311
   O      -10.38495       -13.41449        -6.23767
   C      -10.77622       -12.59535        -7.20922
   C      -10.59811       -11.25666        -7.10347
   C      -11.33105       -10.33199        -8.01744
   O      -11.92233       -10.64569        -9.02274
   C      -11.19336        -8.99993        -7.40391
   C      -11.73355        -7.81079        -7.80635
   C      -11.42998        -6.63613        -7.08137
   C      -10.57723        -6.72430        -5.94256
   C      -10.23309        -5.54694        -5.25281
   C      -10.73421        -4.34060        -5.64961
   C      -11.59629        -4.25420        -6.76053
   C      -11.93177        -5.37808        -7.46530
   F      -12.06090        -3.06181        -7.13805
   F      -10.39053        -3.23040        -4.98038
   C      -10.07036        -7.97190        -5.51768
   C      -10.36249        -9.09407        -6.24813
   C       -9.91124       -10.47004        -6.09482
   C       -8.92128       -10.89206        -5.24647
   C       -8.31757       -12.16607        -5.26632
   N       -7.74449       -13.16065        -5.23026
   C       -8.30534       -10.10079        -4.25116
   N       -7.76761        -9.57621        -3.38277
   H       -5.64876        -2.57278         1.63968
   H       -5.34684        -7.46288         0.87485
   H       -7.54896        -2.42721         0.11445
   H       -7.29280        -7.34910        -0.67479
   H      -12.26118        -4.07072        -2.68438
   H      -14.38933        -8.72485        -2.67394
   H      -13.10280        -8.91435        -0.35108
   H      -11.94517        -4.52813         0.47947
   H      -10.07072        -4.48743         2.35548
   H       -9.06197        -9.08777         1.12130
   H      -10.90357        -8.91648        -1.31682
   H       -8.30633       -10.84670         1.30979
   H       -6.95848       -13.56045         2.94149
   H       -6.75809       -11.81147         2.76089
   H       -5.63557       -12.92883         1.97351
   H       -6.93559       -14.79583         0.50851
   H       -8.31551       -14.92292        -1.50569
   H      -10.94746       -13.16829        -4.19070
   H       -9.46742       -15.60386        -3.08356
   H      -10.26620       -19.31629        -6.67262
   H      -10.80770       -15.25749        -8.39480
   H      -11.32424       -12.98963        -8.05867
   H      -12.37366        -7.76535        -8.67398
   H       -9.56515        -5.60411        -4.40963
   H      -12.59314        -5.29535        -8.31330
   H       -9.47320        -8.00663        -4.61956
*
