# ORCA input file
# SCF done       -231.133055954401          0.000914275616
! CAM-B3LYP def2-SVP def2/J RIJCOSX Grid4 TightSCF
%maxcore 5000
%tddft
    Mode sTDDFT
    Ethresh 5.0
    maxcore 5000
end

%pal
  nprocs 6
  end
* xyz 0 1
   C       -7.98160         1.38230         3.96780
   C       -8.83804         1.49438         5.02699
   F       -8.75684         2.54681         5.84967
   C       -9.81517         0.50658         5.26764
   F      -10.64007         0.64314         6.31310
   C       -9.92251        -0.57945         4.44465
   C       -9.05462        -0.72369         3.34464
   C       -8.06480         0.27330         3.10164
   C       -7.17694         0.14612         2.00933
   C       -7.27097        -0.94815         1.18917
   C       -8.26599        -1.93539         1.43648
   C       -9.14330        -1.83523         2.47796
   C       -8.16656        -3.00058         0.42601
   O       -8.95186        -3.89661         0.22860
   C       -6.97736        -2.64373        -0.41175
   C       -6.48376        -1.35392         0.02836
   C       -5.41932        -0.66666        -0.49491
   C       -4.96236         0.57606        -0.00526
   N       -4.54686         1.58869         0.33907
   C       -4.62819        -1.09591        -1.58219
   N       -3.93396        -1.38163        -2.45015
   C       -6.54759        -3.37498        -1.48028
   C       -6.85434        -4.73985        -1.68298
   C       -7.12455        -5.75568        -0.78472
   C       -7.20469        -6.96879        -1.51310
   C       -6.98008        -6.64287        -2.91688
   O       -6.96615        -7.30205        -3.91116
   O       -6.74816        -5.26596        -2.93361
   C       -7.42439        -7.99229        -0.60559
   O       -7.46954        -7.46023         0.65938
   C       -7.25989        -6.09142         0.62787
   O       -7.17791        -5.43677         1.62604
   C       -7.55886        -9.37640        -0.79444
   C       -7.81701       -10.21620         0.25719
   C       -7.88992       -11.61506         0.14004
   N       -8.17606       -12.46083         1.18510
   C       -8.44742       -12.08320         2.55285
   C       -7.16446       -11.78740         3.32513
   C       -8.12614       -13.81064         0.80130
   O       -8.34631       -14.73504         1.55291
   C       -7.78488       -13.76797        -0.61045
   C       -7.66185       -12.42122        -0.98691
   C       -7.30954       -12.37855        -2.39750
   O       -7.11599       -11.45204        -3.15065
   N       -7.23731       -13.73069        -2.77610
   C       -6.86455       -14.11009        -4.12079
   C       -5.38600       -14.47240        -4.22107
   C       -7.50117       -14.57389        -1.72721
   C       -7.44273       -15.97715        -1.81658
   C       -7.72129       -16.80827        -0.76440
   C       -7.58149       -18.20129        -0.88280
   C       -7.11454       -18.98103        -1.93343
   C       -7.12047       -20.33181        -1.50497
   C       -7.64039       -20.34769        -0.14309
   O       -7.85078       -21.23747         0.62612
   O       -7.89466       -19.01407         0.16467
   C       -6.60109       -21.10564        -2.52783
   O       -6.29262       -20.28978        -3.58268
   C       -6.57991       -18.96781        -3.28222
   O       -6.38990       -18.07288        -4.06072
   C       -6.36001       -22.49421        -2.53045
   C       -5.77171       -23.22311        -3.52188
   C       -5.42909       -22.75036        -4.81199
   C       -4.58421       -23.36006        -5.69008
   C       -4.63887       -23.03530        -7.14614
   O       -5.20944       -22.10323        -7.65747
   C       -3.90534       -24.13239        -7.80979
   C       -3.74756       -24.37084        -9.14486
   C       -3.01141       -25.50362        -9.55840
   C       -2.45813       -26.37574        -8.57567
   C       -1.72834       -27.50616        -8.99501
   C       -1.55263       -27.75700       -10.32701
   C       -2.09910       -26.89310       -11.29821
   C       -2.81370       -25.78988       -10.92330
   F       -1.91165       -27.16446       -12.59540
   F       -0.85760       -28.82942       -10.72367
   C       -2.63495       -26.10219        -7.20009
   C       -3.34154       -24.99167        -6.82241
   C       -3.63951       -24.43978        -5.50343
   C       -2.97589       -24.73781        -4.34204
   C       -3.07783       -23.96837        -3.16265
   N       -3.08229       -23.34235        -2.20112
   C       -2.02109       -25.77072        -4.23058
   N       -1.25862       -26.61657        -4.09117
   H       -7.23900         2.14653         3.79929
   H      -10.67495        -1.32666         4.64224
   H       -6.44213         0.91894         1.85211
   H       -9.88495        -2.60141         2.64275
   H       -5.91721        -2.93185        -2.24059
   H       -7.43576        -9.74759        -1.80323
   H       -7.96178        -9.77550         1.23355
   H       -8.95846       -12.93639         3.00732
   H       -9.11926       -11.22148         2.56496
   H       -6.52461       -12.66627         3.33340
   H       -7.40787       -11.52693         4.35110
   H       -6.61601       -10.96248         2.87634
   H       -7.07221       -13.23905        -4.74821
   H       -7.48636       -14.94528        -4.44998
   H       -4.77154       -13.63439        -3.90155
   H       -5.14347       -14.70947        -5.25223
   H       -5.15258       -15.33842        -3.60745
   H       -7.14643       -16.41057        -2.76198
   H       -8.04174       -16.42077         0.19379
   H       -6.62837       -22.98221        -1.60414
   H       -5.57934       -24.26776        -3.31219
   H       -5.93280       -21.86532        -5.18306
   H       -4.17715       -23.70294        -9.87582
   H       -1.30044       -28.17556        -8.26518
   H       -3.22507       -25.13878       -11.67862
   H       -2.21219       -26.78249        -6.47803
*
