# ORCA input file
# SCF done       -238.982743916511          0.000873409160
! CAM-B3LYP def2-SVP def2/J RIJCOSX Grid4 TightSCF
%maxcore 5000
%tddft
    Mode sTDDFT
    Ethresh 5.0
    maxcore 5000
end

%pal
  nprocs 6
  end
* xyz 0 1
   C       -4.59977        -5.79898        -8.09035
   C       -3.61612        -6.69335        -7.76915
   F       -2.39366        -6.56801        -8.29275
   C       -3.87631        -7.75341        -6.87708
   F       -2.89345        -8.61289        -6.56527
   C       -5.11745        -7.91106        -6.32938
   C       -6.15578        -7.01783        -6.65578
   C       -5.89110        -5.93250        -7.54111
   C       -6.90894        -5.00056        -7.84906
   C       -8.15538        -5.15961        -7.30143
   C       -8.42253        -6.27689        -6.45966
   C       -7.45511        -7.18255        -6.12939
   C       -9.83856        -6.26360        -6.06213
   O      -10.43905        -7.14913        -5.48648
   C      -10.40366        -5.01533        -6.63103
   C       -9.36235        -4.34289        -7.38777
   C       -9.46572        -3.11679        -7.98369
   C      -10.60975        -2.29251        -7.90007
   N      -11.49213        -1.56436        -7.81608
   C       -8.42317        -2.50278        -8.71110
   N       -7.60934        -1.96873        -9.31779
   C      -11.72708        -4.70941        -6.55926
   C      -12.62320        -5.37287        -5.67154
   C      -13.83018        -5.97088        -5.98859
   N      -14.40098        -6.00928        -7.27510
   O      -15.50257        -6.50973        -7.38997
   O      -13.75006        -5.53710        -8.19370
   C      -14.35251        -6.64633        -4.83367
   C      -13.45903        -6.50656        -3.81883
   C      -12.36551        -5.68780        -4.26809
   C      -11.36647        -5.12645        -3.49506
   C      -10.78882        -3.83889        -3.67521
   C      -10.04316        -3.52991        -2.57095
   C      -10.04242        -4.64534        -1.67958
   N       -9.26510        -4.68317        -0.51144
   O       -9.27874        -5.69688         0.17753
   O       -8.60192        -3.69633        -0.25001
   C      -10.81835        -5.67191        -2.23523
   C      -10.82977        -7.00434        -1.81183
   C      -11.13415        -8.09120        -2.59711
   C      -10.89663        -9.41075        -2.18812
   C      -10.38796        -9.85255        -0.98743
   C      -10.04880       -11.23992        -1.01893
   C      -10.35325       -11.67742        -2.32509
   C      -11.06405       -10.60006        -3.08667
   C      -10.45032       -10.61240        -4.48185
   C      -10.35605       -12.09224        -4.82378
   S       -9.80043       -12.93233        -3.27819
   C       -9.30299       -11.91688        -0.02397
   C       -8.74851       -13.20403        -0.05247
   N       -9.16101       -14.31574        -0.76546
   O       -8.46110       -15.31484        -0.76125
   O      -10.24147       -14.24830        -1.37288
   C       -7.66496       -13.27029         0.89045
   C       -7.52212       -12.06024         1.48958
   C       -8.58712       -11.20811         1.05418
   C       -8.93644       -10.03618         1.70751
   C      -10.25633        -9.62620         2.07295
   C      -10.16313        -8.59023         2.95577
   C       -8.78330        -8.24802         3.11805
   N       -8.35892        -7.16487         3.92058
   O       -7.17220        -6.89643         3.95435
   O       -9.21538        -6.58771         4.56107
   C       -7.99781        -9.10821         2.35458
   C       -6.60835        -8.98781         2.10877
   C       -5.92430        -9.39639         0.99987
   C       -6.49750        -9.85122        -0.21063
   C       -5.87350       -10.48238        -1.24887
   C       -6.54799       -10.58845        -2.55815
   O       -7.72512       -10.37986        -2.79527
   C       -5.49653       -10.95222        -3.52131
   C       -5.57586       -11.07436        -4.88000
   C       -4.40128       -11.34132        -5.61842
   C       -3.16220       -11.48443        -4.92949
   C       -1.98887       -11.71520        -5.67337
   C       -2.04132       -11.79421        -7.03711
   C       -3.26825       -11.65135        -7.71673
   C       -4.42537       -11.43318        -7.02336
   F       -3.29467       -11.72783        -9.05221
   F       -0.92858       -12.01237        -7.74239
   C       -3.11695       -11.39180        -3.51893
   C       -4.26778       -11.13478        -2.82343
   C       -4.53073       -11.01011        -1.38998
   C       -3.71636       -11.48340        -0.39768
   C       -4.10584       -11.63048         0.95012
   N       -4.39053       -11.83259         2.04329
   C       -2.42171       -11.99743        -0.63020
   N       -1.35930       -12.40790        -0.76567
   H       -4.38058        -4.98772        -8.76679
   H       -5.29817        -8.72173        -5.64136
   H       -6.67660        -4.18248        -8.51148
   H       -7.67568        -8.00715        -5.46803
   H      -12.15883        -3.97987        -7.23418
   H      -15.29074        -7.16722        -4.82280
   H      -13.57982        -6.84208        -2.80681
   H      -11.01815        -3.17578        -4.48775
   H       -9.52643        -2.60943        -2.37249
   H      -10.43217        -7.17252        -0.82022
   H      -11.43800        -7.94217        -3.62185
   H      -10.18222        -9.21029        -0.15345
   H      -12.13165       -10.85258        -3.15494
   H       -9.45523       -10.17031        -4.42595
   H      -11.04409       -10.06312        -5.21059
   H       -9.63486       -12.32197        -5.60388
   H      -11.32463       -12.51279        -5.09605
   H       -7.09809       -14.16276         1.07617
   H       -6.82974       -11.81437         2.27062
   H      -11.15108       -10.15072         1.79487
   H      -10.96425        -8.08654         3.46229
   H       -6.05061        -8.47296         2.88168
   H       -4.84835        -9.28682         1.02038
   H       -7.52931        -9.58193        -0.41045
   H       -6.52144       -10.96016        -5.39088
   H       -1.04152       -11.82459        -5.16960
   H       -5.35463       -11.32120        -7.56062
   H       -2.16615       -11.50928        -3.02477
*
