# ORCA input file
# SCF done       -221.951487911143          0.000935209391
! CAM-B3LYP def2-SVP def2/J RIJCOSX Grid4 TightSCF
%maxcore 5000
%tddft
    Mode sTDDFT
    Ethresh 5.0
    maxcore 5000
end

%pal
  nprocs 6
  end
* xyz 0 1
   C       -5.10463         3.80433        -1.00511
   C       -4.67435         4.86719        -0.26139
   F       -4.73858         6.10739        -0.75998
   C       -4.15824         4.67334         1.03647
   F       -3.74320         5.73316         1.74084
   C       -4.07957         3.41841         1.57241
   C       -4.51361         2.30275         0.83031
   C       -5.03716         2.49741        -0.48134
   C       -5.48150         1.39311        -1.24336
   C       -5.40738         0.13298        -0.70920
   C       -4.87665        -0.05249         0.59840
   C       -4.43654         0.99444         1.35658
   C       -4.87655        -1.48705         0.93440
   O       -4.39120        -2.00241         1.91624
   C       -5.46110        -2.17283        -0.25306
   C       -5.79471        -1.16731        -1.24543
   C       -6.43990        -1.38668        -2.43286
   C       -6.76990        -0.36760        -3.35210
   N       -7.05912         0.41736        -4.13740
   C       -6.88753        -2.64713        -2.88448
   N       -7.29515        -3.63447        -3.30397
   C       -5.48198        -3.52533        -0.41611
   C       -5.31943        -4.45797         0.63824
   S       -4.62635        -6.04118         0.36593
   C       -4.76874        -6.52871         2.05202
   C       -5.38019        -5.49499         2.74098
   C       -5.67710        -4.36674         1.96764
   O       -6.34466        -3.47881         2.74508
   C       -6.42890        -4.02163         3.98643
   O       -6.94108        -3.51785         4.92481
   O       -5.84710        -5.26082         3.99895
   C       -4.27898        -7.80539         2.42489
   N       -4.19113        -8.35342         3.67768
   C       -4.44465        -7.72185         4.95206
   C       -3.33085        -6.74839         5.32583
   C       -3.65769        -9.66245         3.63491
   O       -3.48878       -10.34296         4.62437
   C       -3.41626        -9.91376         2.23155
   C       -3.79916        -8.75783         1.52343
   C       -3.56461        -8.98588         0.11575
   O       -3.73924        -8.26997        -0.84987
   N       -3.05693       -10.29026         0.05821
   C       -2.65193       -10.88078        -1.19706
   C       -1.14308       -10.79157        -1.40761
   C       -2.94780       -10.85899         1.30718
   C       -2.44466       -12.15378         1.54018
   C       -2.36162       -12.70019         2.78974
   C       -1.83339       -13.98329         3.05435
   C       -1.24010       -14.87849         2.18462
   C       -0.82652       -16.03103         2.90537
   C       -1.22873       -15.80340         4.30995
   C       -1.81661       -14.58423         4.38541
   C       -1.05355       -16.68681         5.38227
   N       -0.93540       -17.39634         6.27727
   C       -0.14169       -17.11779         2.41127
   C        0.36063       -18.23697         3.13966
   C        1.12403       -19.01440         2.29908
   C        1.05932       -18.43124         0.96614
   C        0.29068       -17.31148         1.01764
   C       -0.02705       -16.50514        -0.08028
   N       -0.28187       -15.86288        -0.99840
   C        1.83244       -20.19472         2.65346
   C        2.94490       -20.69939         2.05804
   C        3.32829       -22.12687         2.25925
   O        2.87621       -22.88733         3.08076
   C        4.32308       -22.40909         1.20425
   C        4.91290       -23.59684         0.87956
   C        5.83856       -23.63548        -0.18710
   C        6.12978       -22.43867        -0.90483
   C        7.05265       -22.48451        -1.96914
   C        7.66062       -23.66208        -2.30284
   C        7.37233       -24.84518        -1.59209
   C        6.48043       -24.83367        -0.55647
   F        7.98199       -25.98440        -1.94240
   F        8.53904       -23.70359        -3.31176
   C        5.50558       -21.22269        -0.54505
   C        4.62051       -21.20658         0.49998
   C        3.87592       -20.11229         1.11633
   C        4.17758       -18.78051         1.00350
   C        3.64284       -17.77585         1.83837
   N        3.30030       -16.92324         2.52617
   C        5.14028       -18.27075         0.10720
   N        5.90147       -17.80953        -0.61696
   H       -5.49820         3.97072        -1.99572
   H       -3.68239         3.28661         2.56667
   H       -5.86564         1.57234        -2.23451
   H       -4.03928         0.82552         2.34582
   H       -5.59688        -3.95257        -1.40373
   H       -4.48308        -8.53423         5.68294
   H       -5.40975        -7.21665         4.93126
   H       -2.38153        -7.27386         5.40090
   H       -3.55548        -6.29278         6.28543
   H       -3.23446        -5.95999         4.58325
   H       -3.16506       -10.31218        -1.97729
   H       -2.99057       -11.91914        -1.23672
   H       -0.82944        -9.75064        -1.41649
   H       -0.88068       -11.24202        -2.36036
   H       -0.60424       -11.31021        -0.61799
   H       -2.11536       -12.72766         0.68670
   H       -2.71218       -12.12966         3.64003
   H       -1.08140       -14.73898         1.13435
   H       -2.21718       -14.11426         5.26448
   H        0.22561       -18.39691         4.19131
   H        1.49933       -18.85771         0.08292
   H        1.41321       -20.79216         3.45688
   H        4.67862       -24.49444         1.43129
   H        7.28727       -21.58764        -2.52091
   H        6.27110       -25.74732        -0.02252
   H        5.73789       -20.33379        -1.10976
*
