# ORCA input file
# SCF done       -194.406589216542          0.000300040158
! CAM-B3LYP def2-SVP def2/J RIJCOSX Grid4 TightSCF
%maxcore 5000
%tddft
    Mode sTDDFT
    Ethresh 5.0
    maxcore 5000
end

%pal
  nprocs 6
  end
* xyz 0 1
   C       -1.94115        -8.63120         9.20180
   C       -0.63432        -8.24447         9.30115
   F        0.09924        -8.61525        10.35885
   C       -0.04135        -7.45382         8.29606
   F        1.24261        -7.09098         8.41929
   C       -0.76432        -7.06044         7.20514
   C       -2.11320        -7.44381         7.07316
   C       -2.71449        -8.24268         8.08898
   C       -4.06633        -8.63960         7.97766
   C       -4.79415        -8.24899         6.88374
   C       -4.18445        -7.45635         5.87312
   C       -2.88138        -7.05751         5.95277
   C       -5.15882        -7.17983         4.79675
   O       -4.94320        -6.54334         3.79051
   C       -6.39211        -7.91841         5.18387
   C       -6.17730        -8.50313         6.49843
   C       -7.12339        -9.11368         7.27758
   C       -6.86729        -9.63787         8.56228
   N       -6.71622       -10.08660         9.60787
   C       -8.48101        -9.27538         6.92638
   N       -9.59990        -9.43114         6.72147
   C       -7.43515        -8.21009         4.36035
   C       -7.74333        -7.62503         3.08479
   C       -7.51102        -6.26089         2.80996
   C       -7.80241        -5.69703         1.59149
   C       -8.32690        -6.52703         0.60370
   C       -8.58785        -7.89106         0.89037
   C       -8.33541        -8.45075         2.11642
   O       -9.09674        -8.45454        -0.23572
   C       -9.11937        -7.43496        -1.14364
   N       -8.68146        -6.29042        -0.68674
   C       -9.56661        -7.64254        -2.46763
   S       -9.52866        -6.31188        -3.56070
   C      -10.07104        -7.28344        -4.88736
   C      -10.33455        -8.59898        -4.47143
   C      -10.03308        -8.80917        -3.09047
   C      -10.22587       -10.07543        -2.50876
   C      -10.73363       -11.10345        -3.25916
   C      -10.95139       -12.46336        -2.67626
   C      -11.08718       -10.87236        -4.60917
   C      -10.90209        -9.65998        -5.20739
   C      -10.15180        -6.68466        -6.17639
   C      -10.03238        -7.33916        -7.35237
   C      -10.11309        -6.74590        -8.66376
   C       -9.65637        -7.51138        -9.76399
   C       -9.68884        -7.05633       -11.05687
   C      -10.21713        -5.78389       -11.26986
   C      -10.68415        -5.01487       -10.17309
   C      -10.64039        -5.46886        -8.87440
   O      -11.15235        -3.84940       -10.66765
   C      -10.97809        -3.94963       -12.01709
   N      -10.42419        -5.06843       -12.40308
   C      -11.33859        -2.84510       -12.83470
   C      -11.33564        -2.79228       -14.18848
   C      -11.34020        -1.46455       -14.87346
   O      -11.63304        -0.40009       -14.38489
   C      -10.84930        -1.73893       -16.23789
   C      -10.55124        -0.85240       -17.23324
   C      -10.05668        -1.34069       -18.46287
   C       -9.87325        -2.74399       -18.63501
   C       -9.37034        -3.22339       -19.86149
   C       -9.06733        -2.35210       -20.86971
   C       -9.25155        -0.96480       -20.69911
   C       -9.73577        -0.46838       -19.52154
   F       -8.94565        -0.13458       -21.70468
   F       -8.59023        -2.80949       -22.03416
   C      -10.19786        -3.63855       -17.58987
   C      -10.68694        -3.14438       -16.40983
   C      -11.14248        -3.81865       -15.19663
   C      -11.53239        -5.12472       -15.11270
   C      -12.26838        -5.66475       -14.03446
   N      -12.96656        -6.14139       -13.25828
   C      -11.35580        -6.06040       -16.15366
   N      -11.21565        -6.85949       -16.96524
   H       -2.37975        -9.23509         9.98082
   H       -0.29633        -6.45589         6.44404
   H       -4.49035        -9.25054         8.75810
   H       -2.44411        -6.45621         5.17020
   H       -8.09412        -9.01836         4.65728
   H       -7.12191        -5.63672         3.59682
   H       -7.63043        -4.65260         1.39278
   H       -8.54229        -9.48997         2.31854
   H       -9.98170       -10.22007        -1.46869
   H      -12.00254       -12.74051        -2.74717
   H      -10.65137       -12.49440        -1.63246
   H      -10.37629       -13.20581        -3.22856
   H      -11.52560       -11.68467        -5.17020
   H      -11.21777        -9.50079        -6.22547
   H      -10.23898        -5.60658        -6.17123
   H       -9.80232        -8.39478        -7.33904
   H       -9.26130        -8.49659        -9.56364
   H       -9.33952        -7.65069       -11.88466
   H      -11.02172        -4.86767        -8.06636
   H      -11.55817        -1.92562       -12.30511
   H      -10.68990         0.20751       -17.08348
   H       -9.22678        -4.28220       -20.01009
   H       -9.87088         0.59566       -19.40658
   H      -10.04363        -4.69457       -17.74382
*
