# ORCA input file
# SCF done       -240.155074412953          0.000723315321
! CAM-B3LYP def2-SVP def2/J RIJCOSX Grid4 TightSCF
%maxcore 5000
%tddft
    Mode sTDDFT
    Ethresh 5.0
    maxcore 5000
end

%pal
  nprocs 6
  end
* xyz 0 1
   C       -3.17860         0.75377        -8.99416
   C       -2.39088         1.11836       -10.04947
   F       -1.79439         2.31644       -10.06185
   C       -2.19637         0.24136       -11.13669
   F       -1.42115         0.62723       -12.15732
   C       -2.79172        -0.98885       -11.15213
   C       -3.60833        -1.39507       -10.07862
   C       -3.80731        -0.50811        -8.97968
   C       -4.62142        -0.89368        -7.89180
   C       -5.21280        -2.13049        -7.90043
   C       -5.00350        -3.01348        -8.99950
   C       -4.22951        -2.66353       -10.06787
   C       -5.73300        -4.27082        -8.75989
   O       -5.99785        -5.14744        -9.54654
   C       -6.21096        -4.16821        -7.34348
   C       -6.06901        -2.78545        -6.91956
   C       -6.65000        -2.20634        -5.82529
   C       -7.54263        -2.88196        -4.96594
   N       -8.28933        -3.39677        -4.26254
   C       -6.47110        -0.85540        -5.45723
   N       -6.36132         0.23372        -5.11437
   C       -6.58768        -5.23300        -6.60372
   C       -6.45616        -6.60096        -7.00925
   C       -5.36807        -7.25404        -7.55852
   N       -4.10499        -6.73601        -7.90633
   O       -3.28323        -7.52050        -8.33770
   O       -3.88056        -5.54616        -7.73006
   C       -5.64646        -8.67065        -7.62439
   C       -6.86284        -8.90111        -7.07547
   C       -7.43209        -7.64317        -6.67046
   C       -8.69961        -7.40943        -6.18210
   C       -9.44697        -6.20264        -6.32931
   C      -10.74290        -6.42976        -5.96809
   C      -10.86910        -7.77559        -5.50230
   N      -12.04967        -8.26356        -4.93894
   O      -13.04523        -7.56882        -5.01253
   O      -12.04662        -9.36753        -4.38108
   C       -9.61346        -8.40488        -5.58568
   C       -9.35441        -9.65224        -5.01946
   C       -8.18658       -10.19196        -4.53116
   C       -8.24797       -11.31280        -3.69975
   C       -9.35777       -11.88593        -3.07289
   C       -9.02706       -12.93694        -2.18432
   O      -10.13095       -13.43917        -1.61479
   C      -11.22855       -12.66677        -2.06733
   N      -10.69709       -11.72687        -3.02996
   C       -7.67677       -13.23893        -2.08117
   S       -6.79948       -12.15712        -3.15999
   C       -7.07516       -14.25990        -1.31219
   C       -7.70315       -15.00559        -0.31509
   N       -8.87788       -14.70988         0.39960
   O       -9.15993       -13.54169         0.59569
   O       -9.53020       -15.65934         0.80093
   C       -6.91948       -16.16644        -0.01647
   C       -5.84596       -16.19434        -0.84968
   C       -5.85416       -15.01736        -1.66480
   C       -4.85422       -14.72916        -2.57780
   C       -4.19255       -13.48996        -2.80739
   C       -3.09658       -13.71597        -3.58865
   C       -3.07155       -15.10000        -3.96088
   N       -2.10561       -15.63372        -4.84271
   O       -1.20507       -14.89386        -5.18752
   O       -2.22180       -16.79310        -5.19839
   C       -4.13593       -15.76123        -3.36170
   C       -4.52552       -17.10755        -3.57780
   C       -5.77391       -17.63877        -3.45413
   C       -6.97554       -16.89261        -3.30331
   C       -8.16147       -17.22928        -2.72652
   C       -9.31889       -16.32566        -2.95495
   O       -9.29097       -15.27829        -3.57269
   C      -10.46639       -16.96290        -2.30113
   C      -11.76499       -16.54404        -2.24401
   C      -12.70454       -17.30324        -1.51587
   C      -12.27707       -18.49665        -0.86558
   C      -13.21443       -19.25090        -0.13156
   C      -14.51469       -18.83842        -0.04630
   C      -14.93688       -17.65820        -0.69258
   C      -14.05190       -16.90594        -1.41292
   F      -16.21673       -17.27962        -0.59638
   F      -15.40417       -19.55363         0.65061
   C      -10.93071       -18.91417        -0.95473
   C      -10.03157       -18.15754        -1.65954
   C       -8.59250       -18.31652        -1.86653
   C       -7.82253       -19.25790        -1.23826
   C       -6.41429       -19.31958        -1.21176
   N       -5.27915       -19.42173        -1.07331
   C       -8.34047       -20.29235        -0.42534
   N       -8.67935       -21.17281         0.22747
   H       -3.31724         1.43708        -8.17087
   H       -2.63141        -1.64859       -11.99037
   H       -4.74875        -0.20607        -7.07076
   H       -4.08367        -3.34959       -10.88793
   H       -6.98737        -5.08516        -5.60764
   H       -4.96721        -9.38286        -8.05229
   H       -7.38125        -9.83919        -7.04302
   H       -9.06635        -5.29867        -6.76192
   H      -11.55906        -5.73278        -6.00288
   H      -10.24544       -10.22655        -4.82603
   H       -7.22076        -9.74216        -4.70451
   H      -11.69189       -12.16554        -1.20258
   H      -11.96837       -13.33360        -2.53358
   H      -11.24620       -10.94652        -3.36977
   H       -7.15687       -16.85406         0.77355
   H       -5.04193       -16.90352        -0.83348
   H       -4.42705       -12.57289        -2.30445
   H       -2.35084       -13.00526        -3.89100
   H       -3.72622       -17.76700        -3.89442
   H       -5.87258       -18.71043        -3.55632
   H       -6.99598       -15.91755        -3.78654
   H      -12.07311       -15.64284        -2.75111
   H      -12.90759       -20.15487         0.37091
   H      -14.39377       -16.00619        -1.90018
   H      -10.64637       -19.82605        -0.45647
*
