# ORCA input file
# SCF done       -207.922983301460          0.000459373336
! CAM-B3LYP def2-SVP def2/J RIJCOSX Grid4 TightSCF
%maxcore 5000
%tddft
    Mode sTDDFT
    Ethresh 5.0
    maxcore 5000
end

%pal
  nprocs 6
  end
* xyz 0 1
   C       -7.46796         0.32781        -3.25576
   C       -7.80861         1.59077        -3.71014
   C       -8.95444         1.72912        -4.49665
   C       -9.31892         3.01346        -4.97258
   N       -9.60708         4.05336        -5.35441
   C       -9.75420         0.61845        -4.82674
   C      -10.91077         0.79090        -5.62503
   N      -11.84985         0.90822        -6.26957
   C       -9.40793        -0.65329        -4.36780
   C       -8.27424        -0.77627        -3.59334
   C       -7.70071        -1.99851        -2.99565
   O       -8.15054        -3.12615        -3.09764
   C       -6.50250        -1.57365        -2.27058
   C       -6.35133        -0.13863        -2.42990
   C       -5.36286         0.66116        -1.92306
   C       -5.28860         2.05687        -2.12914
   N       -5.17279         3.19051        -2.26078
   C       -4.27726         0.22824        -1.12989
   N       -3.36809        -0.04296        -0.48393
   C       -5.66916        -2.40091        -1.55828
   C       -5.72241        -3.78567        -1.35220
   C       -4.75764        -4.44990        -0.58126
   C       -4.98405        -5.80901        -0.50798
   C       -6.13674        -6.19960        -1.23087
   S       -6.93215        -4.90286        -1.98851
   C       -6.27381        -7.60626        -1.09550
   C       -5.22789        -8.09752        -0.30279
   C       -4.38092        -6.98875         0.09793
   C       -3.26229        -7.04385         0.87511
   C       -2.78272        -8.26201         1.40257
   N       -2.39908        -9.25581         1.82592
   C       -2.51403        -5.89230         1.20176
   N       -1.90395        -4.95969         1.46882
   C       -5.28600        -9.48737        -0.11903
   C       -6.36616       -10.03386        -0.75506
   S       -7.32591        -8.84710        -1.61161
   C       -6.77801       -11.47279        -0.83016
   C       -5.98029       -12.35254         0.13983
   N       -6.40734       -11.92052        -2.19145
   N       -7.13016       -12.41243        -3.01331
   C       -8.57153       -12.71946        -2.86297
   C       -9.09568       -12.19584        -1.57632
   C       -8.23902       -11.60656        -0.60419
   N       -8.97788       -11.23386         0.40174
   O      -10.23377       -11.57264         0.08994
   N      -10.31133       -12.15638        -1.11073
   C       -9.27712       -12.07982        -4.06112
   C       -8.65544       -14.21615        -2.87900
   C       -9.13551       -15.04091        -3.85927
   C       -9.01757       -16.39335        -3.50261
   C       -8.43003       -16.57502        -2.24484
   S       -8.03399       -15.09474        -1.49718
   C       -8.34938       -17.96455        -1.97295
   C       -8.89013       -18.66504        -3.06880
   C       -9.33078       -17.69770        -4.06464
   C       -9.91066       -17.95866        -5.26995
   C      -10.15824       -19.27555        -5.71507
   N      -10.35165       -20.34474        -6.07914
   C      -10.29281       -16.92534        -6.15283
   N      -10.59683       -16.08224        -6.86722
   C       -8.83556       -20.04329        -2.90259
   C       -8.29054       -20.40688        -1.67747
   S       -7.79290       -18.99548        -0.74405
   C       -8.04371       -21.73041        -1.25488
   C       -7.71139       -22.20982        -0.02358
   C       -7.02148       -23.52432         0.08093
   O       -6.91616       -24.36394        -0.77893
   C       -6.43862       -23.54085         1.44443
   C       -5.58958       -24.47059         2.00618
   C       -5.13669       -24.24610         3.30771
   C       -5.54179       -23.09544         4.01134
   C       -6.41308       -22.16679         3.43849
   C       -6.86335       -22.39777         2.15077
   C       -7.79034       -21.64431         1.30576
   C       -8.75423       -20.78812         1.76674
   C       -9.81647       -20.32583         0.96101
   N      -10.70993       -19.96926         0.33570
   C       -8.84385       -20.35341         3.10552
   N       -8.94165       -19.96197         4.17921
   C       -5.05122       -22.87188         5.32219
   N       -4.65678       -22.67844         6.37917
   C       -4.25945       -25.17394         3.92018
   N       -3.55015       -25.93432         4.39924
   H       -7.22380         2.46670        -3.47978
   H      -10.00929        -1.51591        -4.61154
   H       -4.82371        -1.93579        -1.06596
   H       -3.94176        -3.92863        -0.11228
   H       -4.57730       -10.05228         0.45595
   H       -4.93158       -12.34715        -0.14256
   H       -6.34813       -13.37584         0.09698
   H       -6.09872       -11.97709         1.15238
   H       -9.20488       -10.99646        -3.98938
   H      -10.32572       -12.36346        -4.06294
   H       -8.79734       -12.39982        -4.98120
   H       -9.55816       -14.69135        -4.78195
   H       -9.19056       -20.76834        -3.61266
   H       -8.02866       -22.46958        -2.05104
   H       -5.28222       -25.34601         1.45458
   H       -6.70201       -21.29300         4.00140
*
