# ORCA input file
# SCF done       -158.727977682105          0.000430534415
! CAM-B3LYP def2-SVP def2/J RIJCOSX Grid4 TightSCF
%maxcore 5000
%tddft
    Mode sTDDFT
    Ethresh 5.0
    maxcore 5000
end

%pal
  nprocs 6
  end
* xyz 0 1
   C       -8.08953        -3.76108        -1.80907
   C       -6.77242        -3.90342        -1.45244
   C       -6.02415        -5.08434        -1.64171
   N       -5.35910        -6.01151        -1.76812
   C       -5.97986        -2.91814        -0.82753
   N       -5.27107        -2.17720        -0.31009
   C       -8.91986        -4.80035        -2.40628
   C      -10.24411        -4.31018        -2.53357
   C      -11.26484        -5.06273        -3.06290
   C      -10.96583        -6.35824        -3.49430
   C       -9.63934        -6.83764        -3.36930
   C       -8.60777        -6.07881        -2.82918
   S       -9.49744        -8.45804        -3.97359
   C      -11.17869        -8.47998        -4.37899
   C      -11.82391        -7.33155        -4.07904
   C      -10.30587        -2.92499        -2.03700
   O      -11.29310        -2.22108        -1.98429
   C       -8.91664        -2.58218        -1.63231
   C       -8.50140        -1.34105        -1.23240
   C       -9.34068        -0.21596        -1.10018
   C       -8.85731         1.01801        -0.76838
   C       -9.68031         2.15800        -0.67039
   C       -9.18494         3.40459        -0.42118
   C       -9.94370         4.59943        -0.35082
   C       -9.27559         5.84410        -0.18853
   C       -9.97803         7.09741        -0.18006
   N       -9.29426         8.24541        -0.04512
   C       -7.99198         8.20705         0.08253
   C       -7.29175         6.95587         0.08168
   N       -7.93959         5.82647        -0.05361
   C       -5.88198         6.93348         0.23307
   N       -4.74381         6.95405         0.35788
   C       -7.27772         9.42294         0.23143
   N       -6.67549        10.38876         0.35821
   C      -11.39112         7.17948        -0.31215
   C      -12.06274         5.93850        -0.41533
   C      -11.35392         4.67778        -0.44667
   N      -12.19536         3.64924        -0.56846
   S      -13.69965         4.19413        -0.63464
   N      -13.38151         5.75867        -0.51294
   C      -12.01170         8.45247        -0.37174
   C      -13.34911         8.68716        -0.48394
   C      -13.87291         9.98735        -0.64654
   C      -15.20610        10.24959        -0.74258
   C      -15.77591        11.53370        -0.92585
   C      -15.24907        12.65036        -1.50202
   C      -14.09349        12.88983        -2.34183
   C      -13.51045        12.00426        -3.21173
   C      -12.45503        12.33858        -4.08524
   N      -11.58966        12.54849        -4.80948
   C      -13.94394        10.67822        -3.40633
   N      -14.27012         9.60219        -3.63744
   C      -13.81910        14.32231        -2.30153
   C      -14.90271        14.97779        -1.66049
   C      -15.88077        13.97224        -1.21345
   O      -16.95253        14.15375        -0.68272
   C      -14.95327        16.34328        -1.51253
   C      -13.88368        17.09444        -2.00903
   C      -12.79858        16.42874        -2.63024
   C      -12.74901        15.04840        -2.78665
   S      -11.58799        17.55395        -3.15580
   C      -12.52609        18.87882        -2.55966
   C      -13.69189        18.50459        -1.98860
   H      -12.26273        -4.66031        -3.14404
   H       -7.61451        -6.48944        -2.75882
   H      -11.58632        -9.36641        -4.82486
   H      -12.87012        -7.16347        -4.26003
   H       -7.45091        -1.18675        -1.02018
   H      -10.39723        -0.34258        -1.28729
   H       -7.79557         1.14040        -0.58851
   H      -10.74276         2.03064        -0.82164
   H       -8.11856         3.53484        -0.28877
   H      -11.32708         9.29044        -0.34092
   H      -14.03740         7.85493        -0.49313
   H      -13.16584        10.80769        -0.67881
   H      -15.90054         9.43288        -0.59380
   H      -16.76643        11.68179        -0.50342
   H      -15.79397        16.81687        -1.02988
   H      -11.89903        14.58468        -3.25949
   H      -12.13966        19.87280        -2.67515
   H      -14.40194        19.19058        -1.56357
*
