# ORCA input file
# SCF done       -187.285871505719          0.000326232731
! CAM-B3LYP def2-SVP def2/J RIJCOSX Grid4 TightSCF
%maxcore 5000
%tddft
    Mode sTDDFT
    Ethresh 5.0
    maxcore 5000
end

%pal
  nprocs 6
  end
* xyz 0 1
   C       -1.57941        -3.40203         6.46034
   C       -0.51381        -3.50023         5.56964
   C       -0.60759        -4.31471         4.39081
   N        0.43350        -4.39241         3.54166
   C        1.51707        -3.72159         3.80987
   C        1.60878        -2.92073         4.97335
   N        0.62904        -2.81408         5.82065
   C       -1.77003        -5.05337         4.07117
   C       -2.84087        -4.94620         4.98233
   C       -2.73254        -4.11897         6.16895
   N       -3.85947        -4.15452         6.89590
   S       -4.91656        -5.10902         6.17298
   N       -4.03478        -5.53888         4.90571
   C       -1.82211        -5.83573         2.88624
   C       -2.89218        -6.59943         2.43586
   C       -2.61356        -7.21822         1.22580
   C       -1.31452        -6.92441         0.74976
   S       -0.44442        -5.88871         1.80199
   C       -1.13938        -7.56659        -0.49298
   C       -2.32539        -8.27061        -0.81001
   C       -3.28487        -8.07763         0.26620
   C       -4.54789        -8.58693         0.34822
   C       -5.09508        -9.40711        -0.66106
   N       -5.55032       -10.07408        -1.47538
   C       -5.39625        -8.32625         1.44505
   N       -6.09684        -8.12145         2.32949
   C       -2.26173        -8.90716        -2.03785
   C       -1.03846        -8.69687        -2.67112
   S        0.05325        -7.70827        -1.71034
   C       -0.66054        -9.13918        -3.96057
   C        0.60737        -8.81603        -4.49753
   C        0.98016        -9.14910        -5.84823
   N        2.18632        -8.80006        -6.30407
   C        3.02606        -8.16198        -5.52175
   C        2.65584        -7.83129        -4.18017
   N        1.47242        -8.16234        -3.71729
   C        3.56081        -7.14578        -3.33386
   N        4.31369        -6.59061        -2.67260
   C        4.30265        -7.80836        -6.02217
   N        5.34214        -7.50912        -6.39927
   C        0.10434        -9.82267        -6.73114
   C       -1.13798       -10.21459        -6.17313
   C       -1.51234        -9.87998        -4.81730
   N       -2.72728       -10.33810        -4.52002
   S       -3.33715       -11.10714        -5.78917
   N       -2.10055       -10.89826        -6.78988
   C        0.45609       -10.03225        -8.08522
   C       -0.32016       -10.64295        -9.06809
   C        0.29631       -10.61339       -10.30743
   C        1.56010        -9.97720       -10.27842
   S        1.98488        -9.43249        -8.71403
   C        2.08743        -9.96173       -11.58578
   C        1.15916       -10.58798       -12.44980
   C        0.01096       -11.02316       -11.67370
   C       -1.10235       -11.66815       -12.12742
   C       -1.27367       -12.01223       -13.48496
   N       -1.42589       -12.29859       -14.58493
   C       -2.16206       -12.03292       -11.27030
   N       -3.03014       -12.33232       -10.58333
   C        1.57784       -10.59123       -13.77247
   C        2.81259        -9.97268       -13.92706
   S        3.47313        -9.38430       -12.41248
   C        3.52442        -9.77833       -15.14131
   C        4.77270        -9.11437       -15.14098
   C        5.52149        -8.88375       -16.34429
   N        6.71339        -8.23958       -16.27854
   C        7.13804        -7.84975       -15.11369
   C        6.40001        -8.07443       -13.92696
   N        5.25293        -8.69034       -13.95754
   C        5.04252        -9.31022       -17.58009
   C        3.81844        -9.96560       -17.60681
   C        3.05180       -10.20607       -16.39911
   N        1.91116       -10.84799       -16.66267
   S        1.81290       -11.11796       -18.23929
   N        3.19110       -10.44820       -18.68997
   H       -1.50290        -2.78857         7.34135
   H        2.33369        -3.80569         3.10706
   H        2.50885        -2.36414         5.19636
   H       -3.81195        -6.67033         2.98729
   H       -3.04062        -9.49293        -2.49055
   H       -1.28364       -11.06487        -8.84806
   H        1.04068       -11.00460       -14.60654
   H        8.09094        -7.33888       -15.08817
   H        6.75611        -7.74656       -12.96074
   H        5.60829        -9.13290       -18.47832
*
